         404
 CSIRO Nanostructure Databank - Neutral Graphene Oxide Data Set
C          1.88632         1.94214         3.10695
C          1.75254         3.31105         3.05928
C          3.02261         1.27289         2.59132
C          2.68055         4.12969         2.28226
C          1.48189         6.41736         2.50696
C          1.44778         7.74452         2.20883
C          2.73311         5.61871         2.52892
C          2.63091         8.54457         1.95731
C          1.37534        10.65085         1.66547
C          1.27976        11.91761         1.22084
C          2.61911         9.89872         1.62706
C          2.41068        12.57822         0.47992
C          1.25655        14.85995         1.15697
C          1.32990        16.20542         1.38988
C          2.36099        14.12054         0.52276
C          2.51280        16.97308         1.13430
C          2.58187        18.38255         1.46791
C          4.11313         1.98136         2.07041
C          3.97024         3.42636         1.81378
C          5.35112         1.36340         1.77871
C          5.19679         4.19558         1.54066
C          3.99815         6.35521         2.23174
C          3.92981         7.86049         2.13867
C          5.13066         5.66891         1.51038
C          5.16671         8.61128         1.79856
C          3.83653        10.65197         1.29150
C          3.76821        11.99962         0.87879
C          5.11777        10.02666         1.39152
C          4.97197        12.73763         0.65364
C          3.66541        14.88033         0.39397
C          3.68922        16.31967         0.71874
C          4.95013        14.14984         0.42405
C          4.89463        17.03314         0.53840
C          3.68661        19.11885         1.19671
C          4.81668        18.53072         0.38883
C          6.45542         2.08466         1.28043
C          6.36249         3.54179         1.17325
C          7.66865         1.42593         0.97672
C          7.51726         4.28694         0.71901
C          6.42901         6.43696         1.28282
C          6.43394         7.88093         1.61371
C          7.64290         5.65668         0.89706
C          7.55746         8.65472         1.70405
C          6.31745        10.71967         1.16624
C          6.25531        12.09890         0.79042
C          7.61987        10.04333         1.27547
C          7.45221        12.81734         0.56311
C          6.14112        14.89208         0.36656
C          6.11367        16.34380         0.34535
C          7.40628        14.21157         0.34470
C          7.32590        17.07571         0.23821
C          6.13850        19.21240         0.54421
C          7.33016        18.52433         0.33882
C          8.75769         2.09394         0.36711
C          8.57011         3.51687         0.00421
C          9.93990         1.45460        -0.00290
C          9.69471         4.24907        -0.70646
C          8.87335         6.32199         0.48070
C          9.25800         7.53427         0.97184
C          9.69951         5.79184        -0.71172
C         10.27156         8.43427         0.42586
C          8.78545        10.64301         0.80393
C          8.80252        12.16536         0.79451
C         10.06822         9.94519         0.44221
C          9.91433        12.84118         0.01987
C          8.60674        14.95442         0.09851
C          8.55751        16.38544         0.03662
C          9.83939        14.25564        -0.12550
C          9.72642        17.13047        -0.25188
C          8.57412        19.22021         0.23425
C          9.76365        18.55605        -0.11606
C         11.04853         2.14914        -0.59804
C         10.95700         3.52603        -0.89680
C         12.28803         1.45766        -0.77498
C         12.11112         4.24832        -1.46854
C         11.11284         6.39140        -0.71865
C         11.24919         7.76742        -0.45445
C         12.20730         5.71193        -1.28340
C         12.35212         8.49145        -0.93270
C         11.02058        10.68181        -0.47941
C         11.06705        12.16328        -0.38808
C         12.22232         9.96622        -1.04069
C         12.22990        12.85853        -0.83267
C         10.98023        14.96166        -0.59051
C         10.89437        16.41545        -0.75737
C         12.18949        14.28854        -0.86622
C         12.20463        17.21012        -0.91253
C         11.00927        19.26493        -0.23127
C         12.22665        18.63470        -0.50587
C         13.46364         2.08826        -1.20409
C         13.41521         3.49161        -1.67242
C         14.71046         1.44037        -1.16859
C         14.68040         4.25462        -1.80962
C         13.42371         6.39716        -1.56427
C         13.44739         7.81519        -1.47374
C         14.64662         5.68547        -1.90246
C         14.60311         8.60321        -2.03661
C         13.47613        10.72008        -1.25694
C         13.45919        12.14561        -1.12491
C         14.65662        10.03302        -1.53797
C         14.67317        12.84210        -1.31562
C         13.40363        15.04865        -1.05198
C         13.43538        16.42327        -0.90405
C         14.64185        14.31110        -1.39473
C         14.69482        17.14666        -0.62938
C         13.47587        19.30731        -0.46461
C         14.71184        18.62933        -0.59736
C         15.91228         2.12337        -1.49368
C         15.87996         3.53288        -1.81073
C         17.14540         1.44819        -1.46919
C         17.12867         4.19145        -2.22555
C         15.85647         6.43311        -2.05577
C         15.90450         7.83840        -1.94080
C         17.09819         5.71150        -2.39746
C         17.13998         8.55945        -1.88474
C         15.91603        10.71331        -1.51011
C         15.91665        12.15444        -1.39486
C         17.12191         9.97347        -1.62798
C         17.15285        12.88588        -1.39350
C         15.94761        15.04803        -1.40622
C         15.98628        16.42694        -0.84513
C         17.20453        14.28704        -1.35715
C         17.23951        17.17939        -0.98799
C         15.95165        19.28016        -0.62796
C         17.20861        18.60002        -0.80103
C         18.38917         2.11763        -1.64442
C         18.41827         3.51993        -1.96480
C         19.60071         1.42252        -1.48774
C         19.63505         4.21207        -1.98094
C         18.39408         6.46157        -2.38949
C         18.39151         7.88081        -2.00416
C         19.69832         5.66905        -2.24635
C         19.64673         8.55138        -1.87171
C         18.40264        10.63915        -1.36636
C         18.42409        12.16447        -1.25278
C         19.67133         9.95624        -1.65552
C         19.68651        12.88300        -1.50916
C         18.43062        15.01071        -1.31768
C         18.43000        16.46943        -1.20731
C         19.64601        14.30010        -1.50003
C         19.66209        17.19754        -1.18627
C         18.43097        19.29885        -0.80695
C         19.66653        18.61615        -0.95928
C         20.84106         2.10160        -1.51428
C         20.85455         3.52995        -1.68664
C         22.05554         1.40150        -1.33840
C         22.08728         4.24092        -1.56071
C         20.91527         6.40220        -1.85236
C         20.89122         7.82523        -1.83415
C         22.10326         5.68474        -1.60496
C         22.11926         8.54881        -1.70523
C         20.88841        10.68151        -1.65261
C         20.89906        12.14365        -1.61436
C         22.10891         9.96416        -1.73137
C         22.14895        12.82696        -1.60335
C         20.88460        15.07306        -1.67054
C         20.89589        16.50844        -1.30360
C         22.18881        14.29662        -1.66769
C         22.10256        17.17500        -1.08622
C         20.91076        19.29589        -0.87918
C         22.13420        18.59929        -0.90071
C         23.28764         2.08503        -1.26042
C         23.29039         3.52443        -1.33281
C         24.50599         1.38488        -1.08068
C         24.52309         4.22617        -1.13342
C         23.34231         6.39374        -1.42893
C         23.35987         7.82679        -1.54887
C         24.53102         5.66809        -1.18440
C         24.59036         8.53477        -1.44508
C         23.39887        10.69973        -1.98129
C         23.38029        12.14679        -1.55558
C         24.62992         9.96088        -1.53606
C         24.59915        12.84431        -1.35999
C         23.41208        14.98260        -1.24173
C         23.33403        16.39639        -0.86994
C         24.60779        14.27622        -1.13850
C         24.63711        17.14420        -0.64264
C         23.39437        19.28338        -0.81683
C         24.62645        18.61689        -0.78437
C         25.72897         2.07105        -0.89934
C         25.70853         3.50334        -0.89489
C         26.95846         1.37133        -0.72035
C         26.93172         4.23908        -0.42786
C         25.79991         6.35762        -1.13605
C         25.81979         7.81021        -1.27943
C         26.96761         5.65262        -0.93452
C         27.02433         8.50209        -1.19175
C         25.82293        10.67385        -1.37979
C         25.83905        12.12871        -1.31589
C         27.05208         9.94069        -1.17364
C         27.05024        12.84236        -1.17075
C         25.86241        14.98254        -0.94524
C         25.89148        16.39759        -0.82195
C         27.08781        14.26147        -0.99744
C         27.10571        17.11407        -0.76359
C         25.87598        19.27308        -0.83539
C         27.10235        18.56323        -0.75999
C         28.20783         2.04008        -0.58280
C         28.22994         3.47536        -0.57148
C         29.43501         1.34618        -0.44780
C         29.43893         4.14932        -0.43323
C         28.30756         6.24580        -1.26169
C         28.30923         7.76725        -1.25063
C         29.40473         5.63160        -0.39481
C         29.56219         8.49591        -0.86525
C         28.24054        10.63271        -0.96105
C         28.30766        12.08043        -1.17026
C         29.43680         9.92335        -0.48266
C         29.60705        12.80995        -0.88442
C         28.33379        14.97144        -0.79345
C         28.34306        16.41131        -0.66679
C         29.54716        14.26394        -0.69209
C         29.55150        17.12356        -0.40722
C         28.34001        19.23965        -0.71890
C         29.57475        18.58277        -0.49102
C         30.66478         2.02859        -0.26453
C         30.67362         3.46276        -0.25457
C         31.89505         1.33725        -0.07181
C         31.90559         4.17701        -0.06122
C         30.69602         6.35760        -0.18455
C         30.77914         7.79139        -0.44475
C         31.94335         5.60249        -0.04231
C         31.96166         8.48495        -0.15120
C         30.68934        10.64737        -0.09619
C         30.75084        12.10229        -0.28143
C         31.97354         9.91531        -0.03784
C         31.89641        12.78085         0.05514
C         30.77472        14.92675        -0.43594
C         30.75221        16.35805        -0.25504
C         31.95835        14.19010        -0.16811
C         31.93690        16.93431         0.21843
C         30.76542        19.38409        -0.52040
C         32.00595        19.00882         0.05507
C         33.10714         2.02269         0.10644
C         33.12444         3.46163         0.09538
C         34.34046         1.32627         0.32470
C         34.35844         4.17019         0.23151
C         33.15864         6.31158         0.03930
C         33.18177         7.75059         0.04147
C         34.39079         5.59607         0.18010
C         34.39340         8.45901         0.23090
C         33.14134        10.59488         0.30768
C         33.04870        12.06214         0.72325
C         34.35578         9.86709         0.42919
C         34.36888        12.80219         0.61498
C         33.25532        14.85461        -0.17226
C         33.24597        16.39716        -0.04110
C         34.46345        14.15984         0.31456
C         34.46698        17.13598         0.32103
C         33.33090        19.36346        -0.21361
C         34.48441        18.56614         0.19137
C         35.54436         2.00202         0.46470
C         35.57826         3.44767         0.37976
C         36.76814         1.31126         0.79441
C         36.80029         4.14870         0.43781
C         35.62714         6.30111         0.26115
C         35.65699         7.75073         0.28491
C         36.82406         5.55218         0.38670
C         36.86545         8.47202         0.36230
C         35.56861        10.52398         0.92227
C         35.55396        12.08407         1.05634
C         36.86964         9.86790         0.71296
C         36.83907        12.77327         1.09571
C         35.65406        14.91878         0.56464
C         35.65981        16.37724         0.50287
C         36.84591        14.21887         0.98044
C         36.89023        17.07851         0.62553
C         35.73025        19.21387         0.31960
C         36.92172        18.50026         0.57806
C         37.97188         1.96854         0.88439
C         38.10115         3.38506         0.36136
C         39.15389         1.30718         1.36392
C         39.26351         4.15476         0.95490
C         38.12493         6.25107         0.28586
C         38.15027         7.75775         0.16850
C         39.31841         5.54521         0.82112
C         39.50442         8.47534         0.33307
C         38.04829        10.60471         0.90623
C         38.01271        12.01213         1.21378
C         39.37951         9.97883         0.67817
C         39.21144        12.69351         1.73570
C         38.04596        14.92025         1.17509
C         38.13847        16.33195         0.79337
C         39.19949        14.26103         1.77716
C         39.41380        17.11504         1.19893
C         38.12117        19.21268         0.92693
C         39.27128        18.57407         1.35810
C         40.29133         2.01024         1.66338
C         40.34935         3.44087         1.53053
C         41.46593         4.17265         2.00448
C         40.44042         6.29292         1.31653
C         40.48373         7.72018         1.23017
C         41.50403         5.54811         1.91405
C         41.62433         8.44815         1.68126
C         40.61691        10.67307         1.20591
C         40.52049        12.04527         1.77715
C         41.74046         9.81135         1.61221
C         41.62664        12.78093         2.14399
C         40.48644        14.95783         1.95780
C         40.49375        16.41436         1.92015
C         41.60171        14.20200         2.27007
C         41.44856        17.17521         2.56788
C         40.34402        19.28030         1.99708
C         41.39340        18.60020         2.56526
O         35.36663        11.18517         2.21507
O         15.21772        14.86674        -2.65695
O         19.21355         6.13228        -3.55187
O          8.71539         8.01194         2.16428
O          9.04346         6.33195        -1.80391
O         21.60012        14.82137        -2.92880
O         38.87259        13.44028         2.94418
O         29.64051         6.16737         0.92883
O          2.85825         3.75250         0.89099
O         29.21078         8.29450        -2.29798
O         12.49749         3.73301        -2.78749
O         31.86580        18.01857         1.07899
O         39.20320        16.64230        -0.17028
O         40.24173        10.75045        -0.22126
O          4.72280         8.46932         3.22742
O         18.45269        11.31681        -0.04847
O          8.55872         3.70245        -1.44890
O          5.38347         6.26579         0.21364
O         16.98292         4.82992        -3.54586
O         38.20815         6.90879        -1.03312
O          2.78944        14.65209        -0.78337
O         10.85523         9.28550         1.48618
O         29.26285        12.40347        -2.26822
O         11.35128        16.92827        -2.05832
O         33.40905        15.71716        -1.33706
O         15.41986        16.52614         0.51300
O          3.71298         5.91048         3.59490
O         23.86284        16.64634         0.49725
O         29.72119        10.19027         0.93863
O         11.04896        10.28941        -1.88929
O         38.39388         3.25077        -1.07088
H         39.23776         2.75841        -1.15232
O         14.35619         8.74011        -3.47988
H         14.18730         7.84439        -3.84334
O         26.74259         4.36242         1.04167
H         26.74430         3.45344         1.41133
O         28.60529         5.80416        -2.61931
H         28.98989         6.58006        -3.09291
O         23.50343        10.75310        -3.45876
H         24.34046        11.21591        -3.67847
O          9.13825        12.49859         2.19992
H          8.48449        12.04889         2.77737
O          4.42715        18.76312        -1.03242
H          3.61802        18.23060        -1.19454
O         40.18057         8.42858        -0.94618
H         39.80735         7.65708        -1.43762
O          2.23782        12.18003        -0.90988
H          2.58506        12.92487        -1.45795
O         32.73547        12.05198         2.15011
H         33.50562        11.63030         2.60320
H          1.13479         1.34994         3.64874
H          0.97429         3.81142         3.65343
H          3.10400         0.18389         2.71889
H          0.53348         5.87876         2.65325
H          0.46283         8.22889         2.14579
H          0.48981        10.17692         2.11175
H          0.30173        12.41733         1.25264
H          0.35703        14.31906         1.48025
H          0.46822        16.71942         1.84138
H          1.71636        18.83869         1.97204
H          5.44765         0.27678         1.92512
H          3.71727        20.19079         1.44189
H          7.74447         0.34374         1.16343
H          6.15343        20.30939         0.63297
H         10.05765         0.38160         0.21119
H          8.58136        20.31327         0.35734
H         12.33899         0.40068        -0.47365
H         11.00897        20.34092        -0.00078
H         14.76251         0.38432        -0.86538
H         13.48187        20.39704        -0.30981
H         17.15724         0.37229        -1.24027
H         15.97194        20.37764        -0.54555
H         19.58278         0.33932        -1.29772
H         18.43545        20.38769        -0.64979
H         22.03570         0.30635        -1.23865
H         20.91433        20.38773        -0.74371
H         24.49407         0.28518        -1.06171
H         23.38644        20.38397        -0.81965
H         26.94258         0.27125        -0.72739
H         25.90182        20.37128        -0.90127
H         29.43157         0.24584        -0.45660
H         28.33709        20.33790        -0.78969
H         31.89380         0.23685        -0.06414
H         30.69490        20.36145        -1.02255
H         34.32394         0.22774         0.38818
H         33.53462        20.26675        -0.80797
H         36.71004         0.24323         1.05755
H         35.77493        20.31035         0.24540
H         39.10870         0.22455         1.55554
H         38.06356        20.30961         0.99642
H         41.16898         1.48981         2.07334
H         42.30712         3.63022         2.45968
H         42.38657         6.06763         2.30764
H         42.47218         7.89805         2.11271
H         42.65233        10.28465         2.00290
H         42.60692        12.28928         2.21913
H         42.55698        14.70690         2.47234
H         42.26677        16.68351         3.11247
H         40.29461        20.37718         2.05387
H         42.19419        19.15650         3.07181
