         276
 CSIRO Nanostructure Databank - Neutral Graphene Oxide Data Set
C        -11.32501         0.63020        -0.37568
C         -9.99610         1.33179        -0.23950
C         -8.94884         0.63701        -1.09790
C         -7.73209         1.46459        -1.56093
C         -6.41121         0.65504        -1.57950
C         -5.13957         1.45538        -1.58916
C         -3.84961         0.64848        -1.52550
C         -2.63034         1.33852        -0.97332
C         -1.31424         0.58802        -0.98888
C         -0.03943         1.36145        -0.75048
C          1.30547         0.81706        -1.24135
C          2.42580         1.30170        -0.28874
C          3.75068         0.60961        -0.36478
C          5.04159         1.39551        -0.28654
C          6.36601         0.72955        -0.52588
C          7.66087         1.44851        -0.20582
C          8.77763         0.68317         0.42722
C          9.81965         1.35928         1.31430
C         11.13783         0.63040         1.08560
C         -9.85849         2.85627        -0.38779
C         -8.55290         3.34257         0.23062
C         -7.82196         2.93564        -1.02891
C         -6.60560         3.79257        -1.44848
C         -5.21377         2.94944        -1.35425
C         -3.98598         3.59875        -0.74519
C         -2.68655         2.80208        -0.64366
C         -1.41659         3.60651        -0.26270
C         -0.11406         2.79496        -0.33844
C          1.14655         3.58733        -0.09475
C          2.40843         2.77514         0.12397
C          3.71178         3.51149         0.30943
C          5.02721         2.78323         0.27747
C          6.30047         3.54613         0.33572
C          7.62426         2.96498        -0.10542
C          8.75889         3.57973         0.69933
C          9.82737         2.86368         1.15206
C         -8.47909         4.59285         0.74945
C         -7.56480         5.69607         0.26132
C         -6.48219         5.18930        -0.73323
C         -5.16318         5.91541        -0.66913
C         -3.91369         5.07853        -0.58203
C         -2.58747         5.77842        -0.77239
C         -1.31684         4.99782        -0.91669
C          0.06421         5.72190        -1.06934
C          1.17884         5.07710        -0.24589
C          2.51162         5.78616        -0.13942
C          3.76839         5.01319         0.16575
C          5.05144         5.74004        -0.31199
C          6.39656         4.98958        -0.12185
C          7.51886         5.73573         0.58044
C          8.65530         5.01836         0.88890
C         -7.02143         6.52944         1.40483
C         -6.09094         7.59606         1.14581
C         -5.05418         7.23310         0.05994
C         -3.71262         7.86100         0.27144
C         -2.48534         7.16144        -0.20062
C         -1.23514         7.95271        -0.41136
C          0.00624         7.25059        -0.84682
C          1.32919         7.98990        -0.76577
C          2.61138         7.20924        -0.62214
C          3.88391         7.94043        -0.28985
C          4.97991         7.13184         0.40123
C          6.27777         7.88258         0.57189
C          7.43741         7.16455         0.76235
C         -5.64688         8.63458         2.11225
C         -4.61554         9.46625         1.86165
C         -3.72014         9.34013         0.62346
C         -2.33331         9.87580         0.84935
C         -1.05649         9.20258         0.45208
C          0.00559        10.14925        -0.19545
C          1.33962         9.42119        -0.34519
C          2.49651        10.05506        -0.01490
C          3.83327         9.41840        -0.03917
C          4.99677        10.00150         0.67403
C          6.14714         9.30210         0.86222
C        -11.36699        -0.71284        -0.33335
C        -10.14317        -1.61905        -0.37175
C         -8.91276        -0.83931        -0.88441
C         -7.55387        -1.37009        -0.55779
C         -6.36719        -0.83232        -1.30942
C         -5.08910        -1.69299        -1.28748
C         -3.84034        -0.84964        -1.56285
C         -2.55232        -1.62528        -1.49177
C         -1.26470        -0.85893        -1.35175
C          0.03921        -1.52038        -1.70820
C          1.29797        -0.71193        -1.54512
C          2.62641        -1.42845        -1.50220
C          3.86777        -0.70039        -1.10435
C          5.06918        -1.48284        -0.63496
C          6.39414        -0.77795        -0.59158
C          7.56897        -1.54283        -0.07376
C          8.68073        -0.80770         0.59986
C          9.97857        -1.55499         0.77885
C         11.19337        -0.70047         0.87427
C         -9.89094        -2.39370         0.88096
C         -8.58665        -3.06148         1.22360
C         -7.39534        -2.41951         0.48805
C         -6.07082        -3.10536         0.67604
C         -4.85789        -2.52537        -0.01087
C         -3.55614        -3.26892         0.15249
C         -2.45384        -2.95368        -0.82235
C         -1.06303        -3.52736        -0.65610
C         -0.02614        -3.07182        -1.73033
C          1.35196        -3.75298        -1.55148
C          2.65058        -2.94909        -1.56451
C          3.89994        -3.69264        -1.17942
C          5.05402        -2.97137        -0.55617
C          6.31554        -3.77024        -0.26148
C          7.54152        -3.02965         0.15934
C          8.87104        -3.71353         0.13529
C         10.02387        -2.97699         0.37946
C         -8.52745        -4.58194         1.08827
C         -7.35843        -5.26052         1.13553
C         -6.05222        -4.53237         1.12975
C         -4.74825        -5.30775         1.19119
C         -3.42484        -4.49124         1.09017
C         -2.18246        -5.42323         0.77113
C         -0.96464        -4.84999         0.04232
C         -0.00891        -5.81632        -0.68235
C          1.34241        -5.16096        -1.02195
C          2.56667        -5.71094        -0.28500
C          3.85323        -5.18039        -0.92935
C          5.14332        -5.94136        -0.82478
C          6.47283        -5.17044        -0.85508
C          7.65403        -5.88267        -0.19859
C          8.84462        -5.13275         0.02776
C         -7.34202        -6.78186         1.24917
C         -6.09238        -7.39442         0.57145
C         -4.80218        -6.80253         1.14680
C         -3.54039        -7.63530         1.13117
C         -2.22859        -6.92740         0.94766
C         -1.01674        -7.79696         0.62850
C          0.17570        -7.17016        -0.01367
C          1.35143        -8.01851        -0.42020
C          2.61681        -7.24031        -0.34384
C          3.83956        -7.82924         0.36432
C          5.12478        -7.36503        -0.32949
C          6.38630        -8.04161         0.12154
C          7.60061        -7.22218         0.16916
C         -6.10641        -8.90341         0.57513
C         -5.00846        -9.66673         0.68281
C         -3.64869        -9.11485         0.95511
C         -2.46506        -9.96703         0.52577
C         -1.10703        -9.28122         0.56241
C          0.00611       -10.02658         0.36728
C          1.34252        -9.52866        -0.15984
C          2.59950       -10.01581         0.55094
C          3.77164        -9.32937         0.57779
C          5.02695        -9.89150         1.08198
C          6.22449        -9.27219         0.93713
O         -9.21023         3.23627        -1.66519
O          0.68338        -0.95269        -2.87130
O         -2.09625         5.37354        -2.09045
O          4.37862        -5.89655        -2.07178
O         -0.06113         1.72213         0.65962
O          1.48889        -4.91576        -2.43195
O         -4.96731         2.41295        -2.67926
O          6.65659        -3.62677         1.14990
O         -1.29789        -0.45261         0.05433
O          2.11810        -7.70586        -1.62597
O          8.81568         1.01758        -0.98957
O          0.83566         4.49885         1.02036
O         -6.05092         6.10655        -1.79225
O         -2.71296        -2.84568        -2.25772
O          4.70110        -2.15895         0.60835
O         -1.86542        -6.04801         2.04958
O          4.66440         6.96585         1.75481
O         -2.91668         1.78088         0.38676
O         -6.56114        -0.35149        -2.65569
O          6.76272        -5.02868        -2.29594
O         -5.91867        -3.42095         2.08177
O          2.12552         7.56869        -1.93194
O          6.92036         4.75435        -1.49577
O         -0.85359         7.96966        -1.81798
O          2.88236         0.45085         0.79229
O         -3.75624        -0.06435        -2.79782
O          5.64729         1.35948        -1.62900
O         -4.87057        -6.10887         2.42769
O         -9.28670        -0.29452        -2.17797
O          3.51889        -0.77371        -2.49810
O          5.74874         3.03694         1.55098
O          3.05097         5.68031         1.22476
O         -7.29802        -1.00791         0.87472
O         -6.11937         8.12335        -0.24920
O          2.93850         3.02563         1.44397
O         -0.45414        -3.63269         0.65209
O         -3.86250        -2.02431         0.89054
O         -4.15626         4.21185         0.57735
O          7.74578         3.51729        -1.46579
O          5.78875        -8.24019        -1.24830
O          0.11014        -7.27928         1.42539
O          4.28334         8.84397        -1.33854
O          3.61224        -3.37768        -2.56978
O          9.00395        -1.32626         1.90810
O          3.84410        -7.26942         1.65919
O         -2.87781         7.10533         1.21616
O          7.41517        -1.27291        -1.50931
O         -3.51289        -8.55078         2.28806
O         -8.39834        -2.77851         2.63027
H         -7.94939        -1.90710         2.69917
O         -9.54013         1.04474         1.12416
H        -10.22285         1.35755         1.75395
O         -6.77183         4.10493        -2.81696
H         -7.14390         3.31026        -3.27142
O         -2.72453       -10.35889        -0.83213
H         -1.92869       -10.80943        -1.18527
O         -7.39060        -7.15314         2.62195
H         -6.59662        -6.76857         3.06303
O         -8.45075         6.58313        -0.47879
H         -7.87394         7.12394        -1.06942
O         -1.59989         3.93982         1.12274
H         -1.57347         3.09814         1.63185
O          1.57455         1.48433        -2.49217
H          2.14376         0.90080        -3.04544
O         -0.43073         8.73703         1.68989
H         -1.08373         8.16689         2.15604
O          0.46585         5.48915        -2.42765
H         -0.13241         6.01066        -3.00760
O         -5.29161        -2.65813        -2.33283
H         -5.30912        -2.16943        -3.18528
O          2.47323        -5.22316         1.04811
H          2.95008        -5.88164         1.64388
O         -4.30971        10.06089        -0.49074
H         -4.23192        11.02127        -0.31485
O         -0.45084        10.62947        -1.45090
H         -0.50276         9.86470        -2.07033
O         -0.69981        -6.12521        -1.91357
H         -0.24929        -5.62342        -2.64146
O          4.82553         5.92939        -1.71336
H          5.61224         6.34177        -2.12821
O          7.90722        -4.13322        -2.41916
H          7.72310        -3.69333        -3.28527
O          9.44365         1.17238         2.70143
H          9.36476         0.19998         2.86394
O         -0.48865        -3.45220        -3.02780
H          0.11146        -3.04880        -3.69147
O         -7.94535         1.70561        -2.98069
H         -7.96780         0.82391        -3.41983
O         -6.14276        -6.96506        -0.82365
H         -5.84874        -7.70273        -1.39814
O          1.40302       -10.18175        -1.46545
H          1.96791        -9.60950        -2.03745
O         -3.17624        -3.93523         2.37235
H         -2.98988        -4.68010         2.98663
O        -10.38765        -2.60244        -1.42705
H        -10.39627        -2.10426        -2.27529
H         12.16816        -1.19516         0.74236
H         12.07432         1.20456         1.15491
H         10.63047         3.40046         1.68216
H          9.49938         5.53315         1.37305
H          8.35844         7.69235         1.05672
H          7.01915         9.80830         1.30494
H          4.94164        11.05621         0.98374
H          2.44138        11.08909         0.36280
H          0.14483        11.03404         0.47471
H         -2.23424        10.78940         1.45684
H         -4.37039        10.25094         2.59443
H         -6.22986         8.74640         3.03952
H         -7.42615         6.39391         2.41824
H         -9.33919         4.94846         1.34114
H        -10.78401         3.44220        -0.18384
H        -12.25395         1.22075        -0.41176
H        -12.34043        -1.22551        -0.37699
H        -10.60523        -2.29034         1.71216
H         -9.47719        -5.13772         1.09667
H         -8.25654        -7.19766         0.75451
H         -7.08269        -9.38210         0.39957
H         -5.09706       -10.76117         0.60814
H         -2.43418       -10.88996         1.17485
H         -0.11218       -11.12268         0.31834
H          2.60263       -11.08276         0.82902
H          4.98080       -10.85471         1.61412
H          7.13154        -9.71893         1.37192
H          8.47895        -7.64808         0.68198
H          9.76987        -5.68736         0.25183
H         11.00482        -3.47510         0.34376
