         576
 CSIRO Nanostructure Databank - Neutral Graphene Oxide Data Set
C          6.38239        19.57056         1.26133
C          6.39177        20.90592         0.87483
C          5.64229        21.93029         1.60464
C          6.89535        23.82262         0.48902
C          5.89559        23.25268         1.48314
C          6.37230        25.14872        -0.12154
C          8.50484        15.00971         1.19897
C          8.33410        16.31746         0.46741
C          7.31040        17.27688         1.05549
C          8.26825        19.07439        -0.35768
C          7.27545        18.59628         0.68336
C          8.36015        20.57055        -0.53750
C          7.30387        21.38358        -0.13011
C          8.18018        23.26441        -1.59276
C          7.07593        22.78516        -0.65959
C          8.15018        24.76360        -1.82449
C          6.87713        25.49799        -1.48108
C          8.35315        27.20597        -0.18021
C          7.02406        26.54170        -0.39632
C          8.51014        28.30088         0.63670
C         11.00678        10.82873         2.15695
C         10.47253        11.93583         1.48563
C          9.67789        13.00100         1.90400
C         10.99127        14.86000         0.71421
C          9.64097        14.25341         1.14940
C         10.89964        16.24522         0.10716
C          9.67538        17.03659         0.36436
C         10.81536        19.03763        -0.75041
C          9.63062        18.45385        -0.10171
C         10.74109        20.36318        -1.21752
C          9.53319        21.11067        -1.12690
C         10.76570        23.23640        -1.92417
C          9.45943        22.48812        -1.68159
C         10.66547        24.68436        -1.45164
C          9.43441        25.49795        -1.69243
C         10.66330        27.53333        -1.00119
C          9.47661        26.82502        -1.01606
C         10.84062        28.73803        -0.22396
C          9.74324        29.07397         0.69385
C         11.20519        30.80964         1.77809
C          9.89256        30.08435         1.60926
C         11.01587        32.23252         2.28028
C         13.42927         6.62381         2.64731
C         13.39235         7.97065         2.09402
C         12.26665         8.78859         2.27138
C         13.23701        10.55527         0.85935
C         12.14194        10.07061         1.68846
C         13.26021        11.84755         0.20162
C         12.08063        12.63143         0.10966
C         13.29358        14.64258        -0.34208
C         12.06950        14.02268         0.01353
C         13.25693        16.09144        -0.78948
C         12.01774        16.86244        -0.38200
C         13.26264        18.93265        -0.91933
C         12.03635        18.28803        -0.72143
C         13.29816        20.36714        -1.23801
C         12.00820        21.08894        -1.50338
C         13.22478        23.32695        -1.27023
C         11.91467        22.56436        -1.14410
C         13.21686        24.67891        -1.39373
C         11.94130        25.42943        -1.33033
C         13.12697        27.70111        -1.72682
C         11.87987        26.90451        -1.58141
C         12.97664        29.25649        -1.51291
C         11.97207        29.55002        -0.34893
C         12.75632        31.84967         0.19661
C         12.03312        30.73355         0.50589
C         13.02558        32.98671         1.08476
C         11.97652        33.23397         2.10328
C         13.35383        35.11604         3.12214
C         12.03639        34.44486         2.80378
C         13.42934        36.61908         2.96851
C         15.83542         6.49076         2.23986
C         14.58274         5.91412         2.70436
C         15.74503         7.62785         1.24561
C         14.52205         8.50196         1.44410
C         15.64157        10.36703         0.28484
C         14.45580         9.79790         0.86481
C         15.65239        11.62818        -0.28904
C         14.46956        12.46521        -0.25389
C         15.73792        14.63351        -0.66490
C         14.45228        13.86794        -0.56472
C         15.79080        16.16549        -0.47462
C         14.52086        16.87287        -0.54407
C         15.76872        18.96882        -0.79536
C         14.52413        18.24950        -0.73451
C         15.82287        20.45118        -0.51227
C         14.46941        21.14572        -0.71083
C         15.77542        23.33466        -0.87426
C         14.46763        22.62554        -0.85045
C         15.70966        24.81494        -0.77448
C         14.42287        25.50106        -1.12815
C         15.73962        27.62658        -1.63575
C         14.43428        26.91379        -1.65304
C         15.67698        29.12256        -1.59570
C         14.40345        29.90531        -1.51035
C         15.61877        31.82417        -0.36612
C         14.52884        31.29712        -0.98428
C         15.70661        32.80000         0.81648
C         14.42812        33.51883         1.30003
C         15.94083        35.14421         2.59619
C         14.60919        34.44026         2.49310
C         15.91309        36.59314         2.94652
C         14.61708        37.25723         3.05646
C         18.32924         6.74542         2.48379
C         17.02863         6.00980         2.66711
C         18.20768         7.94961         1.58586
C         17.01619         8.42601         1.15812
C         18.10883        10.64941         0.67428
C         16.98036         9.65174         0.27977
C         18.16072        11.77715        -0.35714
C         16.92416        12.06268        -0.87602
C         18.18026        14.72451        -1.18881
C         16.93432        14.14674        -1.31216
C         18.22847        16.15271        -1.01887
C         17.02352        16.86823        -0.85808
C         18.23361        19.02310        -1.09136
C         16.98491        18.29172        -0.94116
C         18.23387        20.42835        -1.18444
C         16.91085        21.15082        -1.34575
C         18.24818        23.30605        -1.02565
C         16.96193        22.64332        -1.02861
C         18.28679        24.77536        -0.84401
C         17.00524        25.56501        -0.79006
C         18.21290        27.64822        -1.33442
C         17.02127        26.98403        -1.21311
C         18.21502        29.13392        -1.66633
C         16.94279        29.75595        -1.11966
C         18.11100        32.02849        -0.87274
C         16.92317        31.12908        -0.57438
C         18.18694        33.22421         0.06377
C         16.87735        33.83298         0.59034
C         18.31929        35.58492         1.69591
C         17.20236        34.58299         1.90024
C         18.31900        36.82959         2.38509
C         17.05586        37.34445         2.88554
C         20.68570         6.51498         1.64782
C         19.50462         5.89946         2.08082
C         20.69604         7.92756         1.33851
C         19.45757         8.64135         1.25116
C         20.65776        10.78873         0.77302
C         19.42196         9.93900         0.78148
C         20.58794        12.00969        -0.14632
C         19.40717        12.52023        -0.62323
C         20.68705        14.68687        -1.30295
C         19.40911        13.86317        -1.44621
C         20.68642        16.13863        -1.37209
C         19.46599        16.86408        -1.18793
C         20.69597        19.01542        -1.12507
C         19.46450        18.29244        -1.13694
C         20.67118        20.43191        -1.08794
C         19.45375        21.14594        -1.17625
C         20.71792        23.32586        -1.16530
C         19.45355        22.60722        -1.13530
C         20.70475        24.76649        -1.25896
C         19.52996        25.48975        -1.18875
C         20.66978        27.66361        -1.17215
C         19.48946        26.94775        -1.23067
C         20.66565        29.12422        -0.94925
C         19.41167        29.88288        -1.12054
C         20.63813        32.03310        -0.97479
C         19.39138        31.22485        -0.89415
C         20.60884        33.43384        -0.44951
C         19.37168        33.88707         0.24988
C         20.70467        35.82506         1.19082
C         19.46476        35.12473         1.03438
C         20.71743        37.05998         1.92432
C         19.49752        37.57650         2.44484
C         23.10182         6.40149         1.12306
C         21.88770         5.77282         1.48729
C         23.12426         7.80786         0.83751
C         21.90382         8.58129         0.91876
C         23.08686        10.53087        -0.11597
C         21.90183         9.94354         0.59450
C         23.15267        12.04931        -0.03789
C         21.84459        12.85697        -0.11650
C         23.14850        14.64292        -1.46650
C         21.87599        14.00592        -1.10887
C         23.17978        16.17407        -1.55409
C         21.90566        16.87178        -1.33521
C         23.19590        18.94984        -1.06152
C         21.93798        18.28015        -1.15963
C         23.22216        20.40828        -0.82025
C         21.92331        21.17830        -0.86649
C         23.21870        23.29685        -1.15377
C         21.94631        22.63603        -1.11418
C         23.23429        24.79724        -0.89516
C         22.00706        25.48786        -1.50099
C         23.25097        27.68563        -1.12177
C         21.95032        26.93662        -1.04448
C         23.18715        29.14809        -1.40318
C         21.96050        29.87722        -0.97776
C         23.23212        32.05445        -0.90319
C         21.95309        31.35846        -1.21529
C         23.18782        33.32535        -0.35675
C         21.93846        34.08393        -0.13602
C         23.15937        35.86699         1.12981
C         21.95411        35.26439         0.76919
C         23.16869        37.19330         1.69708
C         21.93791        37.75577         2.09503
C         25.54499         6.29009         0.83689
C         24.30518         5.65429         1.05737
C         25.56387         7.70423         0.63649
C         24.36843         8.45107         0.55713
C         25.62302        10.47867        -0.12377
C         24.40232         9.84454         0.18182
C         25.66858        11.84602        -0.56058
C         24.42968        12.65833        -0.48969
C         25.69883        14.71169        -1.12616
C         24.46087        13.87627        -1.38286
C         25.67875        16.11884        -1.17589
C         24.45871        16.86422        -1.29208
C         25.67413        18.98964        -0.62567
C         24.42263        18.25436        -1.06975
C         25.69196        20.45860        -1.03902
C         24.48312        21.14528        -1.07512
C         25.70943        23.30612        -1.12726
C         24.42012        22.58086        -1.15814
C         25.75197        24.80723        -1.26655
C         24.49037        25.54522        -1.32629
C         25.71081        27.68611        -1.58124
C         24.51744        26.94715        -1.39268
C         25.72102        29.15575        -1.71212
C         24.44674        29.93196        -1.57164
C         25.72142        31.94355        -0.82983
C         24.47732        31.33134        -1.08945
C         25.66762        33.39677        -0.52412
C         24.45536        33.78074         0.31698
C         25.70633        36.02924         0.88572
C         24.45653        35.19914         0.87868
C         25.62137        37.46740         1.28752
C         24.37561        37.94754         1.76339
C         28.00250         6.18031         0.51606
C         26.77000         5.55364         0.81730
C         28.03345         7.55430         0.24738
C         26.88402         8.41267         0.66576
C         28.08094        10.42284        -0.17180
C         26.87075         9.77451         0.02382
C         28.10827        11.84395        -0.44984
C         26.87426        12.54276        -0.70587
C         28.14932        14.67581        -0.86280
C         26.90469        13.98501        -0.91631
C         28.17961        16.10730        -0.98507
C         26.93400        16.84646        -1.05552
C         28.21137        18.94121        -0.80292
C         26.93971        18.23037        -0.95813
C         28.22649        20.46722        -0.95027
C         26.94160        21.17395        -1.19676
C         28.19666        23.29955        -1.62298
C         26.94930        22.54439        -1.36993
C         28.19961        24.79004        -1.57419
C         27.02469        25.48348        -1.62598
C         28.28142        27.72942        -1.75082
C         26.98515        26.96303        -1.79904
C         28.22487        29.11379        -1.09373
C         27.02224        29.93756        -1.51393
C         28.21744        32.04561        -0.75881
C         26.97827        31.33571        -1.03712
C         28.21246        33.45647        -0.45887
C         26.92442        34.20630        -0.50736
C         28.14854        36.32684         0.28132
C         26.81042        35.69823        -0.11431
C         28.10404        37.65432         0.97445
C         26.78864        38.22149         1.33286
C         30.45098         6.10995         0.72172
C         29.26716         5.44340         0.56388
C         30.41958         7.62309         0.81236
C         29.35010         8.19200        -0.11779
C         30.52999        10.37210         0.11658
C         29.34194         9.70402        -0.02915
C         30.49340        11.86180         0.31471
C         29.30740        12.54272        -0.32725
C         30.60459        14.61506        -0.49796
C         29.35596        13.94917        -0.56953
C         30.66445        16.02527        -0.93027
C         29.41158        16.80149        -0.98104
C         30.70246        18.94853        -1.00216
C         29.47946        18.21753        -0.97885
C         30.69125        20.38285        -1.17961
C         29.51103        21.10811        -1.25254
C         30.75768        23.33331        -1.32294
C         29.50646        22.55487        -1.60653
C         30.76927        24.78178        -1.53572
C         29.49148        25.50419        -1.17664
C         30.73689        27.66501        -1.00384
C         29.60236        26.94593        -1.72188
C         30.77804        29.16304        -1.07196
C         29.50335        29.93029        -1.19539
C         30.68182        32.02120        -0.44380
C         29.45914        31.35987        -0.77843
C         30.64213        33.40501        -0.08062
C         29.39931        34.10068        -0.08449
C         30.64988        36.27824         0.52448
C         29.34449        35.44783         0.61622
C         30.53090        37.45656         1.48771
C         29.33298        38.07682         1.68756
C         32.87691         6.14140         1.10278
C         31.71532         5.44548         0.94865
C         32.94291         7.58435         0.93594
C         31.75425         8.29971         0.62599
C         33.05121        10.37608         0.32793
C         31.79962         9.66898         0.33821
C         33.01773        11.79223         0.04108
C         31.80058        12.52406         0.00469
C         33.06475        14.64934         0.01924
C         31.80268        13.91012        -0.22092
C         33.12736        16.12391        -0.20102
C         31.95265        16.78496        -0.83561
C         33.18722        18.89242        -0.68298
C         31.95601        18.25782        -0.84852
C         33.25803        20.34819        -0.94030
C         32.00091        21.07727        -1.31581
C         33.35359        23.27640        -1.27944
C         32.02790        22.57351        -1.14577
C         33.39250        24.77427        -1.29279
C         32.03543        25.51422        -1.50257
C         33.32859        27.74025        -1.20332
C         32.03845        26.93462        -1.01487
C         33.26411        29.08758        -0.46921
C         31.96184        29.83391        -0.45844
C         33.10557        31.97035         0.08573
C         31.92187        31.30668        -0.29239
C         33.10092        33.36045         0.28502
C         31.86716        34.07633         0.30362
C         33.03777        35.98600         1.35925
C         31.85941        35.41252         0.77046
C         32.90810        37.24218         2.08732
C         31.73015        37.91125         2.16693
C         34.13964         8.29044         1.06205
C         35.47827        10.31465         1.14993
C         34.24067         9.68258         0.78117
C         35.91298        11.53752         0.61579
C         34.21350        12.53235        -0.20382
C         35.57965        14.58618         0.22278
C         34.33706        13.90975         0.00139
C         35.61537        16.02750         0.10042
C         34.43970        16.78987        -0.27858
C         35.68591        18.93418        -0.35376
C         34.42308        18.17198        -0.47471
C         35.63649        20.39832        -0.09303
C         34.32658        21.13813        -0.20323
C         35.61741        23.33715        -0.09889
C         34.54714        22.55039        -0.74247
C         35.62383        24.74821        -0.11016
C         34.54063        25.46837        -0.70263
C         35.79159        27.67686        -0.20520
C         34.61057        26.93568        -0.86062
C         35.69724        29.10266         0.10876
C         34.53880        29.92311        -0.40733
C         35.61074        31.95510         0.61717
C         34.32751        31.16372         0.49554
C         35.59900        33.33013         0.66406
C         34.38823        34.15415         0.33716
C         34.25843        35.35192         1.23614
C         36.77943        12.51995         1.12523
C         37.88125        14.68367         1.12284
C         36.74864        13.90228         0.74845
C         37.93915        16.06863         0.94848
C         36.79581        16.72921         0.40808
C         37.85615        18.94388         1.04364
C         36.89228        18.17725         0.15745
C         38.00861        20.38080         0.58687
C         36.72380        21.09035         0.33081
C         37.87501        23.29555         1.09605
C         36.63406        22.55335         0.60158
C         37.90156        24.75315         0.96013
C         36.78374        25.46515         0.45292
C         37.93382        27.57823         1.05405
C         36.82957        26.87854         0.46125
C         37.90956        28.99431         1.14938
C         36.77914        29.75736         0.74494
C         36.77224        31.18471         0.87393
C         39.13054        16.83642         1.28505
C         40.30750        18.98537         1.68967
C         39.15806        18.21143         1.28198
C         40.32537        20.36518         1.68165
C         39.20637        21.12672         1.07521
C         40.27455        23.27962         1.71299
C         39.13677        22.57855         1.27898
C         40.22720        24.68672         1.82001
C         39.08183        25.43386         1.40759
C         39.06175        26.84179         1.48676
C         41.45365        21.14735         2.13273
C         41.44743        22.51221         2.10773
O         16.01063        15.24118         0.64935
O         21.39002        29.51672         0.29778
O         25.86821        24.15530         0.09493
O         32.97466        25.31474        -2.60516
O         17.10029        29.98005         0.33140
O         34.34459        22.70723        -2.17799
O         28.39531        37.52126        -0.51108
O          8.47040        22.50242        -2.79955
O         39.04018        20.69535        -0.37393
O         12.34886        27.28663        -2.90492
O         24.03488        12.69509         0.93703
O         23.11693        15.33133        -2.76257
O         26.10937        34.07200        -1.73435
O         36.79145        18.55216        -1.24387
O         21.17298        34.40543        -1.37443
O         14.15140        21.95034         0.47612
O         16.82413        12.92010        -1.99262
O          8.82253        25.29120        -3.01047
O         22.68267        27.31063         0.16438
O         32.89017        15.59635         1.15303
O         14.82025        25.35858         0.27725
O         10.85164        11.99054         0.12541
O         15.52048        34.11195         3.57516
O         36.78359        22.84304         2.03685
O         26.51173        29.69375        -2.83823
O         13.54538        34.15801         0.35593
O         11.18987        25.01296        -0.13429
O         22.56103        20.82009         0.42254
O         31.30395        22.98913         0.06066
O         32.46466        29.10652         0.73745
O         12.85718        20.70897        -2.61127
O         15.22179        27.04113        -2.88009
O         31.54861        16.19610        -2.11996
O         35.33725        11.83790        -0.64412
O         23.57080        29.60554        -2.72827
O         15.10302        29.73058        -2.79193
O         35.72326        27.39310        -1.68224
O         13.32727        31.99262        -1.06740
O         28.21699        19.83365         0.38713
O          9.86642        18.12916         1.31850
O         30.35433        29.68705        -2.36179
O         17.74809        25.28018         0.44045
O         28.88018        22.85108        -2.88787
O         32.93616        20.63096        -2.33770
O         31.27395        27.08412         0.21247
O         21.19687        31.87710        -2.34387
O         27.64885        27.50817        -3.02690
O         25.41871        35.18888         2.03104
O         34.59835        34.67733        -1.02994
H         33.81867        35.22721        -1.26059
O         30.06696        26.83082        -3.08209
H         29.28746        26.93493        -3.67787
O          5.98793        25.70742        -2.55339
H          6.52839        25.85431        -3.35777
O         23.16408        24.88204         0.54621
H         24.03615        24.58124         0.89535
O         33.79713        21.27344         1.14518
H         34.49997        21.63625         1.72707
O         11.51562        22.57043         0.24502
H         12.32861        22.45830         0.79257
O         25.61582        19.00042         0.83759
H         26.46051        19.41029         1.14585
O         11.07819        23.23644        -3.31928
H         10.23582        23.37358        -3.80863
O         21.74169        13.58454         1.16565
H         22.67109        13.70565         1.48995
O         28.04689        28.82012         0.32132
H         28.07194        29.65909         0.82823
O         29.97456         7.96212         2.16913
H         30.64086         7.61882         2.80156
O         16.20975        20.55239         0.87202
H         15.62379        21.22555         1.29556
O         34.82840        30.38596        -1.74137
H         34.78138        29.60909        -2.34749
O         16.00579        31.95230         1.94783
H         16.64411        31.24909         1.69205
O          8.18265        23.99276         1.09386
H          8.09078        24.53240         1.90525
O         24.66088        13.28095        -2.70074
H         24.35553        13.94963        -3.35732
O         29.33989        25.53096         0.27095
H         29.88688        24.81784         0.66545
O         13.40370        34.92355         4.57160
H         14.31521        34.59974         4.78129
O         26.32840        36.41789        -1.26724
H         26.96587        36.30393        -2.00234
O         30.85160        36.76731        -0.82169
H         30.08173        37.35396        -1.03337
O          7.91989        15.95789        -0.88251
H          7.68418        16.79446        -1.35813
O         17.22019         9.16974        -1.07774
H         17.15105         9.93381        -1.69176
O          5.83028        22.75804        -1.39089
H          5.98132        22.25929        -2.22133
O         17.80563        11.19226         1.98039
H         18.66837        11.43668         2.39535
O         33.40265        28.07527        -2.60345
H         33.42269        27.22674        -3.10832
O         12.32203        29.78754        -2.66626
H         12.85098        29.53754        -3.45440
O         30.30352        12.06529         1.76752
H         29.44947        11.64723         2.01106
O         29.70421         7.81097        -1.47252
H         29.03427         8.18544        -2.08107
O         16.50908        21.02949        -2.73633
H         17.23853        21.35421        -3.30394
O         16.42167        34.79766        -0.37180
H         16.28355        34.34293        -1.23017
O         13.17657        16.00036        -2.26262
H         12.31866        15.58115        -2.48812
O         18.67520         7.27492         3.81701
H         18.85833         6.51053         4.40286
O         29.15374        35.10470         2.02172
H         29.92146        34.56642         2.31014
O          7.79433        18.58019        -1.65956
H          8.29383        19.04685        -2.36401
O         11.95701        30.11704         2.83740
H         11.39849        30.09960         3.64283
O         18.25758        29.26452        -3.10331
H         18.15552        30.21318        -3.33427
O         19.40247        13.46063        -2.84171
H         18.51248        13.08224        -3.02756
O         15.58231         7.00453        -0.07405
H         15.99396         7.60806        -0.73644
O         37.20262        19.04828         2.34690
H         37.15997        18.15123         2.74094
O         11.59927        15.08964         2.03499
H         12.39662        15.64989         1.92033
O         34.10478        30.74299         1.86508
H         33.32559        30.13370         1.87630
O         24.55657        32.88323         1.47348
H         25.03602        33.37580         2.18098
O         27.15509         8.67328         2.11197
H         28.11552         8.49111         2.27340
O         22.23567        25.50265        -2.93886
H         21.45165        25.89277        -3.37932
O         17.85949        32.52888        -2.22168
H         18.65192        33.03502        -2.50739
O         22.82112        10.30382        -1.55611
H         22.75515         9.33525        -1.69772
O         20.67665        11.34803         2.15234
H         21.09790        12.24831         2.09516
O         17.83038        33.63944         2.79755
H         17.10667        33.15358         3.26293
H          5.71555        19.24850         2.07586
H          4.91152        21.58610         2.35338
H          5.35183        23.96470         2.12461
H          5.28304        25.27068         0.00441
H          7.60720        14.57367         1.66731
H          6.57863        16.89575         1.78555
H          6.21043        27.28980        -0.39252
H          7.68782        28.61271         1.29886
H         10.57501        10.52717         3.12360
H          9.09602        12.92810         2.83569
H          9.08045        30.30427         2.32016
H         10.23592        32.38724         3.04328
H         12.49840         6.21118         3.06308
H         11.43309         8.41181         2.88314
H         11.21446        34.69245         3.49433
H         12.49406        37.19731         2.99417
H         14.60814         4.92833         3.19305
H         14.63870        38.35769         3.10014
H         17.04141         5.15312         3.36274
H         17.00085        38.41909         3.12022
H         19.50803         4.82276         2.31199
H         19.50501        38.54577         2.96519
H         21.88574         4.69466         1.70467
H         21.92676        38.75171         2.56229
H         24.27473         4.56991         1.23857
H         24.32123        38.97924         2.14318
H         26.74639         4.47381         1.02427
H         26.75470        39.24489         1.73762
H         29.23966         4.34292         0.58422
H         29.26522        38.92976         2.38104
H         33.81607         5.60385         1.30021
H         31.72071         4.34665         1.01091
H         33.80097        37.63218         2.59739
H         31.66284        38.83591         2.76026
H         35.04856         7.75093         1.36796
H         36.08633         9.81746         1.92142
H         36.53895        33.87217         0.85684
H         35.16257        35.80650         1.66831
H         37.48981        12.23283         1.91604
H         38.75584        14.16317         1.54134
H         38.77890        29.51285         1.57876
H         37.70887        31.69207         1.15192
H         40.03814        16.27582         1.55769
H         41.19767        18.43939         2.03988
H         41.10551        25.23035         2.19690
H         39.93526        27.37683         1.88635
H         42.34352        20.61214         2.49678
H         42.33338        23.06767         2.44889
