         430
 CSIRO Nanostructure Databank - Neutral Graphene Oxide Data Set
C         27.91650        27.35381         0.92137
C         27.89844        28.78180         0.97301
C         26.69947        29.48945         1.23182
C         27.88235        31.61261         1.10613
C         26.70162        30.87550         1.30577
C         27.85840        33.11514         1.27010
C         26.66363        33.79391         0.64689
C         27.88741        35.91881         0.57407
C         26.68134        35.12358         0.40703
C         27.89094        37.32814         0.43068
C         26.67781        38.06488         0.24922
C         27.91384        40.16236         0.01183
C         26.69092        39.41902         0.05362
C         27.90817        41.56233        -0.35405
C         26.71579        42.29460        -0.53147
C         27.91269        44.37292        -0.99042
C         26.72400        43.67517        -0.78921
C         27.94767        45.77518        -1.22176
C         30.32758        27.35164         0.53697
C         29.08574        26.66669         0.70994
C         30.33189        28.77151         0.57595
C         29.11196        29.49982         0.78481
C         30.31035        31.67110         0.63629
C         29.09802        30.93407         0.85370
C         30.34273        33.08984         0.71446
C         29.13613        33.80997         0.86507
C         30.36038        35.95467         0.73235
C         29.12409        35.22158         0.73591
C         30.34349        37.36892         0.67807
C         29.12845        38.06111         0.48961
C         30.38112        40.21469         0.23912
C         29.13031        39.48972         0.27109
C         30.34747        41.60226        -0.13833
C         29.16397        42.23830        -0.48614
C         30.43046        44.42590        -0.87383
C         29.19473        43.59784        -1.14394
C         30.40779        45.81099        -1.14118
C         29.13900        46.45714        -1.34794
C         32.80104        24.56510         0.01333
C         31.61084        25.23222         0.21362
C         32.79546        27.36732         0.22585
C         31.56768        26.64702         0.31895
C         32.78530        28.80049         0.26028
C         31.55870        29.47740         0.38164
C         32.86725        31.69662         0.29253
C         31.50815        30.93415         0.25000
C         32.83398        33.12925         0.61037
C         31.59961        33.81886         0.66949
C         32.84479        35.95758         0.78519
C         31.59771        35.23833         0.77114
C         32.86905        37.36827         0.74867
C         31.60224        38.14078         0.99690
C         32.86596        40.20475         0.28885
C         31.61425        39.54756         0.44861
C         32.88773        41.67816         0.21576
C         31.58510        42.40224        -0.01525
C         32.86869        44.48024        -0.53859
C         31.63471        43.78693        -0.51844
C         32.88073        45.86898        -0.87857
C         31.64957        46.54768        -1.14207
C         32.90243        48.59900        -1.55037
C         31.69489        47.92426        -1.46646
C         35.33701        23.15866        -0.45940
C         35.28731        24.55439        -0.29246
C         34.03650        25.25855        -0.05746
C         35.28123        27.40197         0.09300
C         34.03460        26.66908         0.07844
C         35.29132        28.78947         0.28311
C         34.04544        29.52156         0.32871
C         35.28814        31.59679         1.07081
C         34.06756        30.89950         0.51630
C         35.34875        33.04022         0.52520
C         34.06532        33.82538         0.72387
C         35.34079        35.98707         1.03912
C         34.07294        35.21525         0.78520
C         35.29931        37.37416         0.47628
C         34.10318        38.06940         0.49570
C         35.34100        40.21454         0.13107
C         34.09006        39.51089         0.26757
C         35.36330        41.65489        -0.04040
C         34.13937        42.38843        -0.08907
C         35.35897        44.48423        -0.48007
C         34.11759        43.77221        -0.34078
C         35.36851        45.87183        -0.75220
C         34.12210        46.57925        -0.96472
C         35.41814        48.69060        -1.53788
C         34.12354        47.94833        -1.29730
C         35.40116        50.13463        -1.10548
C         37.75710        23.13865        -0.77038
C         36.54932        22.47005        -0.67254
C         37.76664        24.64105        -0.80930
C         36.49973        25.30445        -0.33521
C         37.77480        27.39657        -0.04742
C         36.52037        26.68557        -0.09539
C         37.79998        28.78026         0.21619
C         36.54963        29.51454         0.40479
C         37.87742        31.49422         1.20042
C         36.57054        30.84737         0.76533
C         37.86428        33.02946         1.14645
C         36.57192        33.78655         1.01343
C         37.81611        35.90897         0.66180
C         36.60662        35.23322         0.74107
C         37.82932        37.33364         0.46760
C         36.56612        38.01556        -0.00306
C         37.80527        40.19930         0.18334
C         36.56164        39.51336         0.16537
C         37.83124        41.62579        -0.00428
C         36.58751        42.34039        -0.17058
C         37.81938        44.46787        -0.44018
C         36.59768        43.76785        -0.36244
C         37.84444        45.87563        -0.58055
C         36.61190        46.58428        -0.78679
C         37.85206        48.70210        -0.89479
C         36.64216        47.98089        -1.01048
C         37.84700        50.13767        -0.95193
C         36.55893        50.80800        -0.92996
C         40.24769        20.65158        -2.08450
C         39.04901        21.22816        -1.71686
C         40.23386        23.11723        -0.69201
C         39.01505        22.48207        -1.04924
C         40.18447        24.40053         0.13594
C         39.00248        25.26283        -0.23195
C         40.26653        27.34732         0.06278
C         39.01624        26.64162        -0.07853
C         40.26663        28.73543         0.14949
C         39.05159        29.46850         0.29117
C         40.27318        31.61839         0.43881
C         39.09899        30.88278         0.55839
C         40.30689        33.05267         0.57911
C         39.10490        33.76865         0.82784
C         40.29812        35.89588         0.60674
C         39.07256        35.17555         0.69991
C         40.28595        37.33727         0.57402
C         39.03607        38.04404         0.47528
C         40.25734        40.20173         0.44938
C         39.03211        39.48636         0.34117
C         40.27029        41.63963         0.27419
C         39.05308        42.30675        -0.04333
C         40.32808        44.48619        -0.19278
C         39.10536        43.70552        -0.59059
C         40.32902        45.89668        -0.29319
C         39.08503        46.59542        -0.54098
C         40.31486        48.73578        -0.56895
C         39.08716        48.00206        -0.66283
C         40.30508        50.14752        -0.72476
C         39.06355        50.85404        -0.90907
C         40.29105        52.96719        -1.03662
C         39.10711        52.28170        -1.05944
C         42.73094        20.67395        -2.06310
C         41.47557        21.25988        -1.71906
C         42.71776        22.98325        -0.42218
C         41.44776        22.47033        -0.96819
C         42.71559        24.40145         0.18249
C         41.48537        25.17579         0.12098
C         42.74060        27.29251         0.11148
C         41.51958        26.58818         0.09179
C         42.75134        28.73641        -0.32357
C         41.57112        29.47276         0.33083
C         42.81061        31.63038         0.14387
C         41.49569        30.93284        -0.13425
C         42.80650        33.06818         0.24673
C         41.53221        33.77655         0.42521
C         42.82388        35.89781         0.76661
C         41.51832        35.17679         0.54979
C         42.77482        37.39124         0.53994
C         41.50073        38.06768         0.56518
C         42.72251        40.20202         0.85880
C         41.47105        39.48573         0.58878
C         42.70343        41.72029         0.78325
C         41.47285        42.37541         0.35222
C         42.75308        44.50444         0.20546
C         41.51902        43.78957         0.10083
C         42.76595        45.91719         0.10641
C         41.54125        46.62023        -0.12108
C         42.74380        48.78333        -0.16795
C         41.54466        48.05764        -0.27760
C         42.76148        50.18092        -0.41780
C         41.53300        50.86803        -0.67065
C         42.75635        52.98509        -0.78582
C         41.53553        52.28622        -0.83655
C         43.93005        21.26143        -1.70380
C         45.23058        23.08476        -0.61289
C         43.99036        22.42731        -0.89927
C         45.27181        24.44443        -0.16147
C         44.03559        25.09812         0.29513
C         45.27590        27.33984         0.05320
C         44.01683        26.62159         0.32039
C         45.23652        28.77753         0.07306
C         44.04209        29.46941        -0.00542
C         45.28197        31.62628         0.10287
C         44.00691        30.91502         0.10977
C         45.27542        33.09611         0.10487
C         44.00264        33.77288         0.15923
C         45.24746        35.98156         0.31735
C         43.96336        35.26876        -0.01871
C         45.23972        37.36586         0.36190
C         43.96601        38.08429         0.40781
C         45.18544        40.22809         0.52704
C         44.01035        39.52582         0.57637
C         45.22730        41.65981         1.00459
C         43.97845        42.42097         0.64165
C         45.23909        44.51677         0.48168
C         43.99191        43.78790         0.41336
C         45.22099        45.94976         0.38238
C         44.01297        46.62931         0.22685
C         45.26822        48.80987         0.02061
C         43.97597        48.12763         0.40535
C         45.25550        50.19020        -0.30027
C         43.99496        50.91093        -0.42397
C         43.95788        52.30619        -0.60021
C         47.66909        23.08561        -0.67707
C         46.47596        22.42465        -0.83457
C         47.71199        24.49246        -0.44411
C         46.47529        25.18829        -0.21230
C         47.70770        27.39168        -0.29524
C         46.47647        26.63999        -0.08767
C         47.74681        28.76240        -0.15654
C         46.53297        29.48519         0.38493
C         47.72167        31.71513        -0.31738
C         46.47248        30.94591         0.04318
C         47.76128        33.05029         0.43216
C         46.46218        33.79170         0.23685
C         47.74195        35.98107         0.16511
C         46.50562        35.24212         0.62377
C         47.68114        37.38605         0.11541
C         46.47431        38.09014         0.30816
C         47.72646        40.29517         0.32123
C         46.43419        39.56890        -0.00074
C         47.71521        41.70417         0.53630
C         46.48862        42.40397         0.66472
C         47.69933        44.55653         1.02876
C         46.44926        43.81429         0.65309
C         47.67623        46.01678         0.66270
C         46.49456        46.67665         0.43500
C         47.72738        48.80948         0.01273
C         46.48629        48.11734         0.16557
C         47.69003        50.17175        -0.37996
C         46.49177        50.83884        -0.53775
C         50.19006        24.54040        -0.33917
C         48.94737        25.19693        -0.45259
C         50.22578        27.38242        -0.47320
C         48.93486        26.66652        -0.78763
C         50.21972        28.80316        -0.43059
C         48.98053        29.51185        -0.31677
C         50.22191        31.63090        -0.25762
C         49.00463        30.92347        -0.22323
C         50.28192        33.10284         0.13146
C         48.97562        33.85343         0.03854
C         50.21861        35.96858        -0.25702
C         48.96280        35.24295        -0.05461
C         50.18377        37.44011        -0.40212
C         48.88674        38.17663        -0.24342
C         50.18711        40.30981         0.10366
C         48.93138        39.62208         0.08786
C         50.19518        41.71493         0.29485
C         48.96565        42.43505         0.49183
C         50.20054        44.56027         0.66471
C         48.97217        43.83362         0.64612
C         50.21723        45.98587         0.71962
C         48.94549        46.78145         0.93645
C         50.20787        48.77371         0.14266
C         48.97148        48.14469         0.28800
C         51.38908        25.23237        -0.32689
C         52.68749        27.38062        -0.33916
C         51.43299        26.66231        -0.37949
C         52.67179        28.77940        -0.51975
C         51.45708        29.52001        -0.50304
C         52.68609        31.71059        -0.52404
C         51.45208        30.95646        -0.45606
C         52.71361        33.10254        -0.45907
C         51.39442        33.81591        -0.62212
C         52.68555        35.98585        -0.43102
C         51.43111        35.29826        -0.33940
C         52.67416        37.44939        -0.54848
C         51.43739        38.20485        -0.29029
C         52.69255        40.31378         0.03734
C         51.43608        39.58013        -0.08051
C         52.67180        41.69979         0.25716
C         51.43916        42.43690         0.36419
C         52.68311        44.53662         1.02181
C         51.42862        43.82985         0.58319
C         52.70063        46.03042         0.81475
C         51.44468        46.71579         0.66943
C         51.40703        48.10905         0.41508
C         55.14352        27.39608        -0.14510
C         53.94609        26.71509        -0.16194
C         55.20385        28.79176        -0.41823
C         53.94849        29.47030        -0.74721
C         55.22004        31.70120        -0.49236
C         53.95475        31.00947        -0.76260
C         55.18277        33.13368        -0.36188
C         53.94341        33.83474        -0.43236
C         55.16387        35.99824        -0.24432
C         53.92080        35.28475        -0.41277
C         55.19780        37.41012        -0.06385
C         54.01388        38.21192        -0.37125
C         55.17234        40.27071         0.35523
C         53.95432        39.62679         0.01314
C         55.21631        41.70427         0.44767
C         53.95408        42.42867         0.23924
C         55.20761        44.57952         0.88923
C         53.94978        43.90980         0.49727
C         55.14202        45.96619         1.11495
C         53.93092        46.67347         0.96785
C         56.38893        29.53504        -0.38187
C         56.39498        30.93910        -0.42900
C         56.39119        33.88088        -0.22972
C         56.37812        35.24893        -0.16533
C         56.33781        38.10339         0.41875
C         56.34217        39.47489         0.56302
C         56.38584        42.43504         0.70828
C         56.39273        43.82346         0.90470
O         44.12443        25.81733         1.56015
O         53.97003        30.22508        -2.00447
O         37.13304        33.51263         2.33599
O         42.64823        23.20390         1.04051
O         32.17372        31.41199        -0.96893
O         53.43703        37.94569        -1.69402
O         53.95432        43.44013        -0.87144
O         32.15280        42.29758         1.34299
O         49.37733        37.86715        -1.59555
O         42.63159        40.99269         2.10410
O         31.55793        38.32155         2.47558
H         30.84290        38.96630         2.66693
O         29.27782        43.28804        -2.59510
H         29.19598        44.14122        -3.07317
O         46.68933        29.42887         1.84982
H         45.90134        29.85691         2.24773
O         43.68822        35.50893        -1.43275
H         44.46560        35.20670        -1.94782
O         43.85105        48.32870         1.86585
H         44.64795        47.93539         2.28236
O         46.59380        35.21394         2.13577
H         45.66770        35.23397         2.47004
O         52.74597        44.32942         2.48137
H         51.99903        44.82429         2.88103
O         42.60764        28.68018        -1.76638
H         42.23624        29.54532        -2.06998
O         43.16464        35.70597         2.17953
H         42.43603        36.08208         2.71771
O         37.82712        24.95879        -2.26935
H         36.98537        24.64370        -2.66372
O         50.62418        33.11261         1.54871
H         49.81381        32.81061         2.03034
O         39.25239        43.51168        -2.06233
H         39.25218        44.40470        -2.46973
O         46.31644        39.65734        -1.46975
H         47.09750        39.20293        -1.85570
O         45.24964        41.58417         2.48545
H         44.33368        41.31042         2.75301
O         35.13093        31.68519         2.51540
H         35.20610        30.77879         2.88086
O         39.97240        23.96594         1.52525
H         40.81177        23.52256         1.79886
O         35.57482        48.71184        -3.00732
H         36.41016        49.18920        -3.19951
O         35.38099        36.17875         2.51176
H         34.52804        36.59050         2.77234
O         38.01242        31.14007         2.61667
H         37.45095        31.79254         3.10338
O         47.69987        44.53706         2.52263
H         47.41483        43.63793         2.80115
O         35.54906        32.93788        -0.91212
H         34.73456        32.56259        -1.31159
O         48.90882        47.04329         2.39748
H         48.57274        46.21415         2.81728
O         48.83548        26.70171        -2.27184
H         49.64920        26.28044        -2.62326
O         47.58625        32.08339        -1.72439
H         47.69081        31.27244        -2.26492
O         36.57523        37.80619        -1.47684
H         37.35067        38.29090        -1.83335
O         47.88424        32.78032         1.86641
H         47.55592        33.59836         2.32292
O         27.73231        33.33703         2.72703
H         27.74615        34.30744         2.87194
O         51.05224        33.70504        -2.03550
H         51.72552        34.19506        -2.55259
O         41.85701        29.49231         1.75088
H         41.06240        29.82651         2.21930
O         41.30657        30.96701        -1.58911
H         41.31146        31.90798        -1.86621
H         26.97314        26.80681         1.06325
H         25.76780        28.92836         1.39272
H         25.76552        31.40270         1.53689
H         25.73953        33.22064         0.48296
H         25.77329        35.60943         0.02254
H         25.71398        37.53900         0.25742
H         25.73493        39.93539        -0.10305
H         25.74235        41.80649        -0.39207
H         25.76897        44.22163        -0.80792
H         26.99666        46.32615        -1.27692
H         29.05731        25.56927         0.68411
H         29.10571        47.53935        -1.52974
H         32.77787        23.47141        -0.07936
H         30.68493        24.64579         0.27691
H         32.89828        49.65582        -1.85030
H         30.77011        48.47217        -1.68963
H         34.41789        22.56246        -0.39245
H         34.44481        50.67310        -1.04205
H         36.52403        21.37147        -0.71790
H         36.52561        51.88187        -0.69661
H         40.26154        19.70949        -2.65093
H         38.10397        20.74225        -1.99739
H         40.30098        54.05921        -1.16672
H         38.17242        52.83611        -1.21925
H         42.73513        19.74864        -2.65643
H         42.75825        54.07815        -0.90434
H         44.86389        20.80256        -2.05630
H         44.88795        52.88974        -0.58018
H         48.60492        22.53221        -0.83193
H         46.48767        21.35752        -1.09276
H         48.62413        50.72534        -0.54153
H         46.51368        51.89529        -0.83578
H         50.21826        23.45123        -0.19382
H         50.26622        49.81557        -0.20165
H         52.32082        24.66154        -0.22449
H         52.34706        48.66930         0.32497
H         56.07871        26.85352         0.05684
H         53.96016        25.63208         0.01891
H         56.06734        46.52377         1.32103
H         53.97463        47.77186         0.99238
H         57.34170        29.00828        -0.22506
H         57.36548        31.44249        -0.32083
H         57.35524        33.35765        -0.18849
H         57.33501        35.77994        -0.07918
H         57.25485        37.55052         0.66215
H         57.26957        39.96281         0.89017
H         57.34380        41.90421         0.79716
H         57.34485        44.32457         1.13287
