         429
 CSIRO Nanostructure Databank - Neutral Graphene Oxide Data Set
C          1.14171         3.96365        -1.53027
C         -0.04434         4.66726        -1.38999
C          1.10231         6.41042        -0.12629
C         -0.06739         5.88620        -0.69633
C          1.07099         7.64779         0.68808
C         -0.11816         8.52501         0.70737
C          1.19869        10.41479         1.60783
C         -0.07196         9.74789         1.27221
C          1.20146        11.99081         1.60045
C         -0.05951        12.72582         1.45162
C          1.13852        14.76154         0.83475
C         -0.08221        14.03026         1.08427
C          1.13834        16.15588         0.59660
C         -0.08256        16.91712         0.48744
C          1.12311        19.11937         0.64929
C         -0.10433        18.27201         0.48075
C          1.21976        20.28481        -0.38062
C         -0.02825        21.11397        -0.43185
C          1.12679        23.27633        -0.29700
C         -0.05460        22.47659        -0.39364
C          1.10067        24.69285        -0.31739
C         -0.01914        25.43243        -0.73957
C          1.10051        27.61512        -0.54131
C         -0.00591        26.83485        -0.86696
C          1.12245        29.06228        -0.66470
C         -0.08532        29.80001        -0.74231
C          1.13392        31.91022        -0.86130
C         -0.07777        31.17911        -0.84027
C          1.13638        33.35358        -1.03350
C         -0.00947        34.12947        -1.18406
C          1.18989        36.27991        -1.13318
C          0.01406        35.54682        -1.23515
C          1.23931        37.71434        -1.04480
C          3.56587         3.76227        -1.21031
C          2.35364         4.47201        -0.99567
C          3.57540         6.29484         0.17633
C          2.33570         5.72344        -0.28885
C          3.66032         7.60060         0.66596
C          2.42337         8.30107         1.04272
C          3.66751        10.46026         1.15651
C          2.45691         9.75094         1.26445
C          3.67019        11.90573         1.06992
C          2.43739        12.65201         1.15265
C          3.58652        14.73592         0.43421
C          2.36709        14.02079         0.84324
C          3.60402        16.19644         0.58680
C          2.39124        16.89309         0.59180
C          3.63745        19.02990         0.53791
C          2.39641        18.32084         0.58101
C          3.63781        20.48010         0.29092
C          2.46933        21.10068        -0.08845
C          3.70145        23.32174        -0.14589
C          2.42366        22.55821        -0.32365
C          3.62717        24.76494         0.23040
C          2.29751        25.45459         0.14507
C          3.61776        27.67302        -0.06024
C          2.29405        26.95202         0.01906
C          3.64951        28.99988        -0.79649
C          2.35180        29.77293        -0.67918
C          3.63089        31.89699        -0.65991
C          2.36273        31.18057        -0.77194
C          3.63756        33.27769        -0.68539
C          2.44291        34.02411        -1.10315
C          3.67263        36.29460        -0.72735
C          2.47210        35.56507        -1.14382
C          3.68209        37.70461        -0.70874
C          2.42182        38.39234        -0.90819
C          6.01833         3.59985        -0.99029
C          4.79724         4.23975        -0.73337
C          6.13490         6.17628         0.30827
C          4.79219         5.47281         0.07727
C          6.11436         7.61240         0.60396
C          4.92099         8.29528         0.83977
C          6.13040        10.46868         1.01746
C          4.91883         9.74246         1.03853
C          6.13649        11.88595         0.84777
C          4.89590        12.56736         0.79785
C          6.17561        14.74858         0.35735
C          4.88532        13.97684         0.37077
C          6.15288        16.23851         0.58428
C          4.85373        16.88570         1.05454
C          6.07360        19.10469         1.04389
C          4.83194        18.36311         0.78039
C          6.11001        20.54575         0.74913
C          4.90031        21.21273         0.42573
C          6.12990        23.35424         0.38105
C          4.92926        22.60955         0.24817
C          6.12261        24.79067         0.19435
C          4.89968        25.51935         0.13097
C          6.11698        27.62584        -0.17960
C          4.88870        26.90812        -0.04351
C          6.11297        29.06620        -0.28268
C          4.89635        29.78085        -0.44270
C          6.11787        31.91501        -0.34202
C          4.87480        31.18070        -0.44403
C          6.12334        33.32871        -0.37115
C          4.84342        34.02552        -0.29062
C          6.13108        36.28189        -0.14616
C          4.82907        35.55261        -0.24408
C          6.12883        37.74825        -0.30419
C          4.88937        38.41429        -0.47664
C          8.48499         3.59857        -1.13379
C          7.27963         4.23813        -0.77310
C          8.54523         6.32559        -0.35187
C          7.34055         5.57752        -0.27479
C          8.61959         7.66985         0.18790
C          7.42210         8.24688         0.79454
C          8.66850        10.49117         0.83504
C          7.42448         9.77436         1.08096
C          8.63783        11.92059         0.80929
C          7.39433        12.61303         0.75480
C          8.63165        14.75391         0.81469
C          7.42841        14.02789         0.63683
C          8.61685        16.21000         0.93356
C          7.42230        16.90102         0.95034
C          8.64086        19.11347         1.03733
C          7.38275        18.35967         1.19267
C          8.60057        20.52734         0.93060
C          7.34328        21.24069         0.78860
C          8.59330        23.38130         0.57230
C          7.35148        22.65753         0.60411
C          8.57364        24.76821         0.26789
C          7.36031        25.49071         0.08934
C          8.57031        27.66831        -0.18254
C          7.34530        26.92032        -0.12677
C          8.58391        29.05873        -0.08466
C          7.34650        29.79008        -0.14420
C          8.56502        32.00305         0.20188
C          7.33714        31.20146        -0.16449
C          8.59726        33.36595        -0.40609
C          7.35025        34.07121        -0.84756
C          8.64937        36.34053        -0.69848
C          7.42499        35.55075        -0.42576
C          8.63160        37.72354        -0.39780
C          7.36586        38.39690        -0.26581
C         10.94454         3.63354        -1.33931
C          9.71140         4.30385        -1.12199
C         10.93609         6.51886        -1.12863
C          9.71353         5.70294        -0.83447
C         11.02294         7.82012        -0.36245
C          9.82822         8.39666         0.18579
C         11.11039        10.49374         0.54944
C          9.87143         9.78340         0.59357
C         11.14260        11.88079         1.14022
C          9.85791        12.64574         0.89789
C         11.10077        14.73046         1.48720
C          9.84902        14.03559         0.99592
C         11.06275        16.23057         1.28565
C          9.88178        16.93031         1.12952
C         11.06712        19.14967         1.14789
C          9.86047        18.39777         1.08854
C         11.05041        20.54823         1.07891
C          9.82865        21.26183         0.92020
C         11.08255        23.41272         0.73897
C          9.82852        22.68688         0.75716
C         11.11015        24.78650         0.36727
C          9.84770        25.42784        -0.06079
C         11.10132        27.66378        -0.39626
C          9.81982        26.90471        -0.37962
C         11.08905        29.09780        -0.26135
C          9.87077        29.79965         0.24268
C         11.04133        31.99555        -0.14661
C          9.87256        31.28210        -0.06549
C         11.08908        33.44478        -0.12894
C          9.78807        34.21178        -0.09724
C         11.19041        36.10018        -0.92496
C          9.84759        35.44679        -1.01911
C         11.10475        38.24510        -0.48757
C          9.80034        38.54889        -0.11916
C         13.41578         3.60934        -1.35184
C         12.18939         4.30618        -1.23922
C         13.42085         6.42955        -1.08017
C         12.21228         5.72651        -1.07105
C         13.38252         7.94706        -1.17003
C         12.21434         8.52919        -0.39870
C         13.53682        10.60968         0.02889
C         12.27506         9.88291         0.07769
C         13.56564        11.99380         0.37601
C         12.36846        12.67901         0.75723
C         13.61236        14.76428         0.98977
C         12.37777        14.05056         1.00355
C         13.62663        16.18443         1.40878
C         12.33083        16.94416         1.54418
C         13.60709        19.14617         1.05763
C         12.34549        18.44776         1.43021
C         13.54514        20.53558         0.88114
C         12.33315        21.29021         1.37907
C         13.51556        23.47573         0.96497
C         12.31149        22.74974         0.98191
C         13.51413        24.87916         0.81494
C         12.31199        25.52063         0.44868
C         13.53373        27.78561         0.43705
C         12.38659        26.93260         0.00958
C         13.61201        29.14919        -0.10183
C         12.35677        29.80137        -0.47492
C         13.59433        32.00023        -0.07255
C         12.34349        31.32851        -0.40102
C         13.56184        33.45757         0.32646
C         12.27205        34.13934        -0.05621
C         13.55263        36.35040        -0.13643
C         12.31338        35.57089        -0.35129
C         13.52327        37.82823         0.01139
C         12.33598        38.62866         0.08455
C         15.88385         3.60607        -1.47039
C         14.63321         4.30922        -1.39606
C         15.85484         6.50297        -1.54103
C         14.62480         5.73314        -1.28459
C         15.90056         7.92769        -1.11512
C         14.71478         8.59150        -0.83306
C         15.99095        10.63673        -0.25013
C         14.73283         9.95261        -0.36340
C         16.01370        12.00380         0.10654
C         14.80822        12.70724         0.35997
C         16.07732        14.85451         0.58139
C         14.82086        14.11279         0.67656
C         16.09212        16.25420         0.66506
C         14.88664        16.97455         1.11973
C         16.03797        19.08718         0.46539
C         14.79219        18.41156         0.84264
C         16.05120        20.57030         0.35929
C         14.74113        21.28800         0.48391
C         16.09732        23.44729         0.73333
C         14.79103        22.76658         0.69492
C         16.10826        24.89988         0.92236
C         14.78782        25.61911         1.01042
C         16.08042        27.79122         0.53124
C         14.81541        27.10314         0.83715
C         16.05090        29.16271         0.24206
C         14.80173        29.86330        -0.00357
C         16.06026        32.03886         0.04029
C         14.79715        31.31287        -0.08378
C         16.05847        33.45652         0.04236
C         14.76680        34.18429        -0.27469
C         15.98199        36.33092         0.57541
C         14.72885        35.66315         0.05552
C         15.99758        37.81366         0.27231
C         14.74374        38.49116         0.15685
C         18.32904         3.55948        -1.36057
C         17.10052         4.26162        -1.53969
C         18.46947         6.46519        -1.73493
C         17.13265         5.73086        -1.75786
C         18.40647         7.85006        -1.11043
C         17.18485         8.56465        -0.92089
C         18.48362        10.60923        -0.42251
C         17.22043         9.92287        -0.49871
C         18.53522        12.00620        -0.15702
C         17.32512        12.66747         0.44816
C         18.50011        14.87192         0.16658
C         17.30267        14.16860         0.30405
C         18.54186        16.28209         0.34297
C         17.31786        16.98345         0.54025
C         18.55435        19.13638         0.54256
C         17.32858        18.39495         0.59292
C         18.56119        20.53888         0.62661
C         17.28197        21.28079         0.88355
C         18.51967        23.47483         0.37709
C         17.29557        22.76736         0.57009
C         18.53696        24.89565         0.36881
C         17.33989        25.64374         0.59695
C         18.52823        27.76037         0.16487
C         17.31314        27.05023         0.47137
C         18.50494        29.15602        -0.02176
C         17.28607        29.88759         0.08240
C         18.57787        32.02594         0.27905
C         17.27169        31.30655         0.06686
C         18.51505        33.50682        -0.00196
C         17.28301        34.18532         0.05347
C         18.45104        36.33778         0.15546
C         17.26885        35.63506         0.15595
C         18.46163        37.78172         0.61672
C         17.18217        38.49318         0.28648
C         19.53042         4.22771        -1.18170
C         20.80929         6.31084        -0.89397
C         19.61401         5.63420        -1.20276
C         20.84583         7.69608        -0.84651
C         19.64978         8.48050        -0.89992
C         20.90532        10.63008        -0.77732
C         19.69399         9.90712        -0.68155
C         20.90854        12.00780        -0.66738
C         19.73211        12.70682        -0.31909
C         20.98617        14.86246         0.24777
C         19.75908        14.21634        -0.34910
C         21.00337        16.19221         0.47801
C         19.79030        16.99799         0.38598
C         21.02850        19.17252         0.46622
C         19.80183        18.39921         0.47542
C         21.05217        20.52008         0.59220
C         19.81873        21.34115         0.83502
C         21.00089        23.48986         0.05096
C         19.74454        22.66469        -0.00340
C         20.99632        24.83963         0.09577
C         19.77436        25.62187         0.18373
C         20.99885        27.80386         0.04716
C         19.77123        27.02172         0.11022
C         20.99259        29.13087        -0.19766
C         19.72467        29.84414        -0.59852
C         20.85832        32.08399        -0.69147
C         19.75881        31.33964        -0.36169
C         20.88754        33.50142        -0.53420
C         19.73380        34.22306        -0.21437
C         20.84589        36.45770        -0.32588
C         19.71416        35.68468        -0.14106
C         20.79736        37.89144        -0.23809
C         19.68090        38.53957         0.17247
O          7.56794         8.78537         2.14683
O         13.08607         8.25543        -2.54074
O         14.57592        22.17567        -0.68998
O          4.55459        34.77159         0.97733
O          1.26352        11.20872         2.82665
O          2.85976        27.66364         1.17667
O         14.53751        16.51258         2.49657
O          6.62717        18.76439         2.40620
O          1.64364         7.52651         2.02297
O          5.50525         5.34085         1.34259
O         13.93608        27.72826         1.84069
O         16.34521         6.18627        -2.90490
O         11.24542        37.33259        -1.56783
O          3.24368        23.00459        -1.50366
O         15.49405        25.24649         2.24282
O          6.95686        35.77894         0.95820
O         12.07188        27.15384        -1.38522
O         12.31560        17.79604         2.74743
O          9.78757        25.92596        -1.46137
O          2.82207        24.98884         1.43621
O         16.10268        19.82401        -0.87257
O          4.11454        14.20093        -0.85749
O          2.68345        34.75381        -2.36365
O          6.21743        15.69354        -0.76570
O         12.38706        30.62996        -1.69349
O         12.45408        21.30855         2.84722
H         12.42722        20.37871         3.16359
O         18.83324         6.70553        -3.13307
H         17.98176         6.84882        -3.61253
O         13.68418        33.54238         1.76706
H         12.83390        33.27412         2.17258
O         19.80351        14.53943        -1.78497
H         19.81156        15.51715        -1.86607
O         19.84312        21.78225         2.23824
H         20.13556        21.02089         2.78331
O          9.73799        34.98769        -2.40560
H         10.02179        35.73249        -2.97889
O          8.50318        32.16247         1.68245
H          8.99177        33.00076         1.89172
O         11.24075        11.70184         2.59204
H         11.23969        12.60588         2.99416
O         18.82434        31.92573         1.74422
H         19.61382        32.47477         1.93980
O         19.57553        22.20952        -1.37539
H         19.47427        22.99659        -1.95010
O          9.94798        29.76147         1.72571
H          9.35930        30.49093         2.05334
O         15.94988        36.22373         2.03359
H         16.73488        36.72407         2.36462
O         17.48530        12.44447         1.90332
H         16.70856        12.84725         2.34843
O         19.61269        29.68687        -2.05852
H         19.61995        28.72533        -2.25134
O          1.04335        19.77392         1.94800
H          1.07162        19.08060         2.64010
O         17.10351        21.23694         2.34534
H         17.90939        21.65868         2.73155
O          9.66970        34.68248         1.29968
H          8.81865        35.17183         1.39746
O         18.50668        37.71349         2.10121
H         19.36675        37.30678         2.34199
O          4.86554        16.70505         2.52293
H          5.46758        17.40926         2.88068
O          7.22402        34.05886        -2.31273
H          8.12586        34.26002        -2.67530
O         14.60716        34.07080        -1.72160
H         15.37389        34.50469        -2.15068
O          3.78460        28.63525        -2.20955
H          3.88523        29.46141        -2.72808
O         11.11467        14.52710         2.94989
H         10.49748        15.17226         3.35672
O         10.80168         6.90413        -2.54066
H         11.63028         7.45510        -2.75577
O          1.39408        19.64784        -1.67269
H          1.56422        20.34902        -2.33637
H          1.15697         3.00494        -2.06795
H         -0.97682         4.26664        -1.81057
H         -1.02571         6.40861        -0.57598
H         -1.08383         8.12640         0.36509
H         -1.00515        10.31423         1.39352
H         -0.99715        12.22931         1.73480
H         -1.04781        14.55047         1.03297
H         -1.03829        16.37922         0.40924
H         -1.07619        18.78485         0.43496
H         -0.98019        20.57807        -0.55898
H         -1.03073        22.98257        -0.43147
H         -0.92322        24.89917        -1.06442
H         -0.90398        27.31678        -1.27859
H         -1.04822        29.27245        -0.70615
H         -1.03754        31.70988        -0.89763
H         -0.99555        33.64459        -1.20562
H         -0.94577        36.08130        -1.29003
H          0.29438        38.27309        -1.11873
H          3.53738         2.82800        -1.79042
H          2.42151        39.49161        -0.87885
H          6.01123         2.62795        -1.50562
H          4.87398        39.51382        -0.50177
H          8.47094         2.54153        -1.43622
H          7.38063        39.49726        -0.25271
H         10.93595         2.55199        -1.54226
H          9.63744        39.38602         0.57652
H         13.41166         2.51487        -1.45586
H         12.39683        39.57755         0.64003
H         15.87018         2.50907        -1.38173
H         14.75147        39.59220         0.16236
H         18.29730         2.46309        -1.28121
H         17.19939        39.58676         0.15978
H         20.44000         3.65038        -0.95770
H         21.71526         5.72969        -0.66619
H         21.80280         8.18905        -0.62860
H         21.84201        10.11073        -1.01928
H         21.84120        12.56223        -0.83968
H         21.90599        14.27275         0.37300
H         21.93165        16.67325         0.81931
H         21.98135        18.63955         0.33287
H         22.02422        21.03537         0.59383
H         21.96369        22.96744        -0.05007
H         21.95902        25.36957         0.05978
H         21.95577        27.30460         0.25687
H         21.94211        29.68629        -0.21114
H         21.74954        31.59571        -1.11249
H         21.82589        34.02595        -0.75895
H         21.80873        35.99022        -0.57216
H         21.70050        38.45910        -0.50606
H         19.66784        39.63638         0.25485
