         598
 CSIRO Nanostructure Databank - Neutral Graphene Oxide Data Set
C         23.45470        70.08890        -2.48436
C         23.50632        71.46584        -2.49763
C         22.40314        72.23608        -3.06260
C         23.60038        74.41693        -2.72804
C         22.42246        73.57989        -3.13146
C         25.85782        65.72173        -1.89482
C         25.74871        67.12781        -1.77252
C         24.57783        67.82999        -2.05004
C         25.71826        70.04463        -1.30832
C         24.46327        69.27385        -1.80634
C         25.77836        71.49462        -1.52834
C         24.66683        72.19416        -2.01580
C         25.87806        74.30188        -1.72264
C         24.74621        73.62686        -2.13546
C         28.21205        61.39941        -1.32505
C         28.19099        62.84029        -1.28784
C         27.05624        63.57376        -1.64609
C         28.26121        65.67433        -1.25780
C         27.05540        64.99686        -1.61495
C         28.29389        67.14040        -1.39427
C         27.00501        67.89328        -1.55847
C         28.14141        70.01141        -0.82079
C         26.98751        69.31995        -1.19315
C         28.07733        71.44099        -0.68011
C         26.97762        72.17448        -1.15587
C         28.18188        74.30631        -0.80161
C         27.02630        73.62047        -1.20196
C         30.69090        57.13445        -0.99691
C         30.62766        58.49073        -0.97566
C         29.27597        59.17579        -0.91981
C         30.54222        61.36903        -0.58819
C         29.33797        60.68483        -1.00227
C         30.50843        62.79382        -0.42043
C         29.35682        63.52732        -0.81523
C         30.57419        65.61126        -0.29583
C         29.39659        64.95229        -0.80591
C         30.70561        67.07154        -0.50309
C         29.52355        67.88421        -0.96377
C         30.46924        69.96362         0.02291
C         29.41232        69.31848        -0.58092
C         30.37699        71.38600         0.43674
C         29.15431        72.17269        -0.00748
C         30.47822        74.26688         0.14463
C         29.29372        73.62949        -0.22054
C         32.92181        52.73499        -0.73542
C         32.77708        54.00160        -1.22461
C         31.73108        54.98254        -1.02972
C         33.26276        57.07872        -1.31332
C         31.91036        56.34914        -1.07298
C         33.19245        58.59569        -0.95474
C         31.86906        59.29319        -0.89802
C         32.88725        61.33848         0.15592
C         31.74803        60.68158        -0.38793
C         32.78415        62.72412         0.52196
C         31.62269        63.46519         0.14530
C         32.65413        65.56227         1.14253
C         31.60875        64.88628         0.30050
C         32.76953        67.04913         1.05211
C         31.85989        67.78845         0.12040
C         32.75540        69.90853         1.20713
C         31.74262        69.26834         0.31324
C         32.75817        71.40703         1.20991
C         31.61101        72.14484         0.66197
C         32.85592        74.25009         0.92814
C         31.64261        73.54952         0.59867
C         35.36372        48.50604        -1.08087
C         35.37364        49.85765        -0.73149
C         34.23141        50.69157        -1.01840
C         35.52101        52.73216        -0.49535
C         34.21803        52.04276        -0.79262
C         35.56199        54.19938        -0.25490
C         34.65295        55.05901        -0.93418
C         35.39540        57.03276         0.22077
C         34.42951        56.38412        -0.62267
C         35.29779        58.39451         0.50384
C         34.42052        59.29839        -0.34335
C         35.05643        61.18735         1.21160
C         34.09949        60.60537         0.38237
C         34.75073        62.44283         1.78985
C         33.81460        63.33314         1.29045
C         35.18298        65.54825         1.74319
C         33.80480        64.77403         1.81608
C         35.21842        66.96855         1.71763
C         34.01663        67.75916         1.45494
C         35.17151        69.89131         1.96169
C         34.00746        69.13410         1.45535
C         35.29293        71.34078         1.59287
C         34.06787        72.10811         1.20078
C         35.29820        74.22786         1.42711
C         34.06501        73.58857         1.21886
C         37.90180        44.21801        -1.21491
C         37.72658        45.55149        -0.78822
C         36.56805        46.30042        -1.11586
C         37.30279        48.10762         0.34804
C         36.40528        47.62451        -0.66578
C         37.17313        49.46182         0.79804
C         36.39636        50.40052         0.14179
C         37.75356        52.60279         0.87925
C         36.64445        51.88072         0.14369
C         37.74004        54.01961         0.89451
C         36.59320        54.80999         0.46686
C         37.69548        56.92242         1.10484
C         36.54318        56.24129         0.66161
C         37.67856        58.34846         1.29340
C         36.37505        59.03096         1.29115
C         37.63433        61.25678         1.71734
C         36.33530        60.51319         1.61820
C         37.69120        62.71416         1.76701
C         36.59046        63.49410         2.13468
C         37.68939        65.59794         1.70106
C         36.45125        64.89159         1.86161
C         37.70260        67.01710         1.78293
C         36.45946        67.67238         1.89287
C         37.74815        69.86884         2.28737
C         36.44417        69.11486         2.21353
C         37.74926        71.39196         2.20114
C         36.50004        72.11077         1.91589
C         37.75576        74.21276         1.73614
C         36.50906        73.50656         1.69597
C         40.44306        40.03073        -1.41041
C         40.38423        41.44525        -1.13291
C         39.19285        42.14984        -1.28101
C         40.24342        44.23782        -0.41649
C         39.09396        43.52899        -0.94409
C         40.08819        45.55318         0.07117
C         38.77399        46.14314         0.01674
C         40.33449        48.40990         1.44083
C         38.41900        47.32279         0.70156
C         40.28194        49.85440         1.67343
C         39.05636        50.55012         1.62496
C         40.19831        52.66679         1.47433
C         38.96479        51.93797         1.34048
C         40.17296        54.08592         1.36780
C         38.93092        54.76105         1.20690
C         40.12775        56.89872         1.43757
C         38.92103        56.18379         1.25208
C         40.08450        58.33466         1.70549
C         38.83028        59.08713         1.55066
C         40.12030        61.24235         1.53843
C         38.83717        60.53456         1.63071
C         40.13935        62.70749         1.53536
C         38.91820        63.44086         1.58691
C         40.16118        65.59260         1.60891
C         38.92153        64.86635         1.62552
C         40.22070        67.02192         1.63742
C         38.96879        67.75808         1.75796
C         40.20021        69.91957         1.66012
C         38.97765        69.13813         1.92023
C         40.19344        71.39659         1.84413
C         39.02012        72.09831         1.91011
C         40.21077        74.25227         1.59142
C         38.99272        73.55136         1.78179
C         43.01717        35.85625        -2.09275
C         42.95535        37.24108        -1.75540
C         41.73784        37.93610        -1.73006
C         42.88943        40.10596        -1.25974
C         41.63912        39.33185        -1.45970
C         42.79589        41.39933        -0.51370
C         41.55152        42.16558        -0.68464
C         42.75421        44.25113        -0.13707
C         41.51261        43.53302        -0.39123
C         42.66572        45.74127        -0.10898
C         41.32811        46.41386         0.18122
C         42.63812        48.58439         0.72056
C         41.37390        47.79245         0.78761
C         42.69381        49.79906         1.56727
C         41.49290        50.58018         1.72623
C         42.65550        52.79755         1.69503
C         41.45338        52.01157         1.73026
C         42.63781        54.15979         1.35166
C         41.38710        54.83179         1.35057
C         42.62540        56.96330         1.21645
C         41.37686        56.24461         1.37392
C         42.60065        58.34719         1.15529
C         41.39827        59.08723         1.55170
C         42.61280        61.21817         1.36739
C         41.30426        60.54006         1.36042
C         42.60243        62.68705         1.51411
C         41.34128        63.42928         1.55867
C         42.62587        65.55168         1.75828
C         41.37500        64.86073         1.61360
C         42.71710        66.96645         1.68431
C         41.48600        67.68438         1.63056
C         42.80163        69.89659         1.50383
C         41.50611        69.16053         1.49340
C         42.77781        71.38524         1.61387
C         41.47293        72.13560         1.84237
C         42.66243        74.27118         1.32911
C         41.45732        73.59325         1.57461
C         45.55773        33.19708        -2.75495
C         44.31262        33.81802        -2.57840
C         45.47403        35.78104        -1.54863
C         44.22378        35.15258        -2.12689
C         45.41473        37.28018        -1.56449
C         44.21949        37.94134        -1.55033
C         45.38626        39.98913        -0.58240
C         44.20129        39.41751        -1.35193
C         45.38408        41.49684        -0.43611
C         44.06976        42.12980        -0.13590
C         45.26334        44.31232         0.12895
C         43.97189        43.59872        -0.03539
C         45.27730        45.79109        -0.03608
C         43.97242        46.49856        -0.01536
C         45.22354        48.44441         1.05539
C         43.97861        47.91923         0.44702
C         45.19994        49.72701         1.62985
C         43.92320        50.23510         2.01197
C         45.15365        52.74502         1.53958
C         43.95429        52.28831         2.04703
C         45.07578        54.01624         0.70255
C         43.86977        54.85616         1.08970
C         45.09652        56.96916         0.67849
C         43.86328        56.23452         0.96965
C         45.05838        58.34795         0.55423
C         43.78261        59.06630         0.65886
C         45.12124        61.27348         0.73006
C         43.81150        60.56592         0.74651
C         45.04949        62.76310         0.73903
C         43.84923        63.42376         1.32075
C         45.59124        65.77340         1.21566
C         43.79077        64.69289         1.82023
C         45.25806        67.12657         0.98229
C         44.07795        67.74849         1.73580
C         45.16167        69.96624         0.82298
C         43.97250        69.22053         1.34343
C         45.11140        71.46405         0.72376
C         43.92477        72.18302         1.18611
C         45.09056        74.31068         0.71340
C         43.90085        73.58843         1.12159
C         46.75912        33.88278        -2.55860
C         47.96017        35.94704        -1.98054
C         46.77464        35.22241        -2.09559
C         47.98256        37.33988        -1.65793
C         46.68047        38.04340        -1.63029
C         47.92331        40.16827        -0.92172
C         46.65799        39.48003        -1.21919
C         47.86763        41.52577        -0.60352
C         46.57155        42.17590        -0.38426
C         47.80024        44.41426        -0.51025
C         46.58433        43.62054        -0.01668
C         47.85443        45.94002        -0.11131
C         46.52696        46.47310         0.38795
C         47.68688        48.32922         1.53807
C         46.46402        47.72230         0.95613
C         47.65094        49.83424         1.91071
C         46.37741        50.55436         1.78170
C         47.64305        52.64814         1.55798
C         46.37320        51.96080         1.64936
C         47.66215        54.08265         1.14852
C         46.40077        54.78370         0.72851
C         47.56324        56.97302         0.68654
C         46.37007        56.27495         0.69049
C         47.60233        58.39155         0.29852
C         46.25864        59.12639         0.21693
C         47.54889        61.27982         0.16424
C         46.28293        60.60136         0.39496
C         47.50549        62.73272        -0.06740
C         46.25952        63.51954         0.26503
C         47.52170        65.68894        -0.31987
C         46.40844        64.99015         0.41749
C         47.66279        67.11558         0.17085
C         46.47648        67.87551         0.66494
C         47.62478        70.00068         0.26523
C         46.49428        69.33339         0.63289
C         47.65837        71.48090         0.39062
C         46.39484        72.22153         0.67082
C         47.53607        74.37560         0.20852
C         46.31150        73.69001         0.46108
C         49.14753        38.06069        -1.43807
C         50.34954        40.16436        -0.85694
C         49.15837        39.46413        -1.09284
C         50.33790        41.54659        -0.52603
C         49.08854        42.25765        -0.44916
C         50.26620        44.32164         0.13338
C         49.08295        43.65836        -0.22129
C         50.22540        45.66417         0.66520
C         49.03945        46.38485         0.73895
C         50.15508        48.41863         1.69411
C         48.99741        47.70648         1.30833
C         50.12713        49.83083         1.95145
C         48.92237        50.56353         1.90050
C         50.09013        52.79909         1.97245
C         48.85549        51.99330         1.76277
C         50.07386        54.25478         1.65127
C         48.89404        54.88482         1.39060
C         50.07911        57.18387         1.10001
C         48.81769        56.35911         1.18171
C         50.06332        58.51713         0.43636
C         48.86438        59.18104         0.31312
C         50.03640        61.36279         0.03534
C         48.79450        60.62220         0.07478
C         50.07510        62.75806         0.07025
C         48.81810        63.48340        -0.15178
C         50.05990        65.70378         0.30852
C         48.78777        64.94777         0.12239
C         50.08185        67.17564         0.05413
C         48.90818        67.84931        -0.17982
C         50.14525        70.03512        -0.26512
C         48.79803        69.32256        -0.47639
C         50.09411        71.52865        -0.22960
C         48.72914        72.22590        -0.40221
C         49.97960        74.39740        -0.09088
C         48.75683        73.71063        -0.03304
C         51.53912        42.25933        -0.30782
C         52.74188        44.32326         0.28378
C         51.52675        43.61478         0.06669
C         52.75359        45.64182         0.76811
C         51.46909        46.22636         1.21682
C         52.70410        48.43123         1.52286
C         51.45117        47.69524         1.68894
C         52.71143        49.87337         1.82262
C         51.41150        50.56194         2.14108
C         52.70426        52.81620         2.07243
C         51.38676        52.07275         2.18643
C         52.67077        54.32108         1.86086
C         51.37219        54.97936         1.49193
C         52.67071        57.25242         1.20158
C         51.38490        56.45144         1.19184
C         52.63176        58.43507         0.24933
C         51.34353        59.15514         0.03674
C         52.48714        61.37624         0.61143
C         51.37634        60.67344        -0.16737
C         52.50785        62.77025         0.58361
C         51.29599        63.50940         0.27988
C         52.51269        65.66438         0.52848
C         51.31748        64.92444         0.31449
C         52.48964        67.10572         0.56342
C         51.34487        67.85846         0.25942
C         52.47193        70.02968         0.60614
C         51.34322        69.31008         0.27108
C         52.45773        71.51911         0.73545
C         51.20911        72.28808         0.41240
C         52.45314        74.37565        -0.10062
C         51.24459        73.73711         0.05692
C         53.93193        46.39224         0.89140
C         55.13870        48.54054         1.19307
C         53.91480        47.78088         1.21196
C         55.16007        49.93078         1.26675
C         53.84478        50.67554         1.21438
C         55.10649        52.81435         1.44517
C         53.93389        52.11269         1.66702
C         55.12244        54.26541         1.36723
C         53.89946        54.99839         1.39328
C         55.11425        57.06549         0.98784
C         53.89108        56.37639         1.12749
C         55.08882        58.49581         0.92087
C         53.72490        59.12678         1.05495
C         54.94633        61.36470         0.73863
C         53.68354        60.65865         1.23881
C         54.96684        62.83687         0.88107
C         53.73183        63.53121         0.81785
C         54.98113        65.66683         0.82287
C         53.73549        64.95031         0.75454
C         55.00688        67.08872         0.85544
C         53.71859        67.81013         0.98782
C         55.00947        70.06456         0.92264
C         53.70116        69.32878         1.04386
C         54.99217        71.46138         0.42779
C         53.76680        72.25158         0.66598
C         54.94469        74.18054        -0.51357
C         53.74359        73.71312         0.16586
C         56.35554        50.67422         1.22169
C         57.56052        52.80115         1.08127
C         56.36079        52.09123         1.22326
C         57.59448        54.22335         1.04800
C         56.34154        54.94282         1.12559
C         57.57063        57.08135         0.91745
C         56.34861        56.35963         0.99309
C         57.54853        58.50530         0.88672
C         56.28249        59.19101         0.87472
C         57.50863        61.41218         0.87761
C         56.26843        60.65136         0.67595
C         57.45835        62.80844         0.93737
C         56.19998        63.52043         0.87394
C         57.44560        65.66053         0.82505
C         56.21011        64.94960         0.85572
C         57.44986        67.06565         0.67505
C         56.22796        67.77764         0.75594
C         57.41922        69.89322         0.05406
C         56.28173        69.26230         0.76093
C         57.30758        71.22052        -0.37444
C         56.13291        72.03362        -0.11496
C         57.24687        73.97516        -1.25155
C         56.10174        73.41699        -0.60530
C         58.79396        54.93736         0.92501
C         60.01449        57.09446         0.87648
C         58.81854        56.36380         0.90087
C         60.01506        58.52191         0.95432
C         58.76096        59.23808         0.92974
C         59.93860        61.37062         1.25789
C         58.76003        60.68601         1.01424
C         59.96344        62.86368         1.43053
C         58.67349        63.56802         1.09056
C         59.98678        65.70540         1.10245
C         58.68106        64.94401         0.98471
C         59.91617        67.10940         0.52166
C         58.71048        67.76325         0.42010
C         59.78703        69.72720        -0.62334
C         58.63700        69.14174        -0.07181
C         59.66149        70.98540        -1.36787
C         58.35317        71.77127        -1.24090
C         59.52596        73.77037        -2.15124
C         58.38864        73.21931        -1.54095
C         61.21122        59.21477         1.13421
C         62.26558        61.33014         0.49705
C         61.26357        60.67753         1.42999
C         62.21388        62.67456         0.18551
C         61.10670        63.50548         0.66357
C         62.36984        65.52392         0.11774
C         61.11474        64.85737         0.52241
C         62.43058        67.01373         0.05251
C         61.21267        67.89555         0.38147
C         62.17266        69.71021        -1.13761
C         61.06984        69.10001        -0.54040
C         62.08165        71.03420        -1.70077
C         60.87570        71.71255        -1.75542
C         61.86710        73.67426        -2.87487
C         60.76432        73.06571        -2.27835
C         63.28498        63.31223        -0.51996
C         64.52074        65.34555        -1.13782
C         63.41428        64.70330        -0.54978
C         64.64285        66.75316        -1.23824
C         63.60544        67.63919        -0.64746
C         64.50782        69.51520        -2.14988
C         63.50081        69.04434        -1.16333
C         64.40945        70.79243        -2.64822
C         63.31631        71.68727        -2.19249
C         64.26036        73.51131        -3.74701
C         63.19268        73.06452        -2.84267
C         65.69576        67.33036        -1.94594
C         66.77363        69.22044        -3.08428
C         65.68385        68.69044        -2.40225
C         66.66207        70.45667        -3.84822
C         65.35843        71.29017        -3.64730
C         66.49104        73.21095        -4.74597
C         65.36994        72.72289        -4.02464
C         67.82319        71.19288        -4.34130
C         67.68559        72.47036        -4.84948
O         53.06751        58.34178         2.23985
O         40.88256        58.69896         2.87870
O         58.63190        70.94343        -2.41993
O         32.70798        59.32001        -2.14264
O         43.48451        59.92542        -0.52710
O         43.29421        41.36111         0.87249
O         36.66203        52.28951        -1.28238
O         52.12318        58.46052        -1.07800
O         47.54305        67.28579         1.61386
O         52.84613        53.76394         3.18585
O         63.72374        72.85817        -1.44134
O         44.71950        46.29393        -1.28805
O         55.47882        60.96628        -0.55699
O         33.88412        54.47930        -1.94443
O         32.49894        68.68909        -0.81840
O         55.92666        69.87512         2.04689
O         27.89279        67.63356        -2.72497
O         39.18606        47.71222         1.80226
O         44.81106        70.64532        -0.46114
O         37.91106        49.82644         1.92314
O         43.95706        51.24595         2.98637
O         41.89124        46.36115        -1.18655
O         53.93889        73.34520         1.59041
O         30.58919        67.50178        -1.89941
O         47.36460        71.92019         1.75044
O         46.56845        39.13447        -2.63364
O         47.54442        48.77085         2.91705
O         53.55937        68.54265         2.26014
O         37.84424        70.67700         3.50077
O         24.66387        69.61763        -0.38235
O         50.53900        70.84052        -1.43394
O         43.32728        48.79000        -0.55061
O         47.30329        54.23590        -0.29921
O         40.73859        69.60171         0.30709
O         48.09649        63.11326        -1.36856
O         42.32304        71.76864         2.97994
O         45.17237        63.21347        -0.69847
O         51.49543        55.47541         0.09911
O         49.31708        57.14125         2.34992
O         29.30758        71.72008         1.38819
O         51.47396        46.56761         2.63130
O         32.33645        70.62817         2.40534
O         51.53001        71.96755         1.79346
O         52.30837        50.09238         3.20966
O         43.72569        40.21826        -2.47468
O         32.00292        66.44460         2.14761
O         65.52634        70.42098        -4.79534
O         35.54839        69.49929         3.30777
O         42.85643        61.77731         2.71028
O         36.04839        59.52202         2.66062
O         35.56859        62.86652         2.83525
O         46.92543        58.64439        -0.98400
O         50.61633        52.54072         3.33201
O         62.90095        66.31943         1.26102
O         46.06752        43.91674         1.31062
O         44.97330        65.20687         2.32686
O         48.31430        72.14957        -1.74200
O         34.93640        71.53344         0.15523
O         64.10964        68.76787         0.15464
O         49.20432        65.28667         1.46360
O         51.69143        60.92932        -1.56737
H         52.14245        60.12624        -1.92057
O         44.82500        53.62003        -0.67030
H         45.70524        53.49576        -1.09616
O         47.39336        65.69028        -1.73880
H         47.37851        64.75047        -2.04310
O         48.41655        69.46535        -1.85827
H         48.42585        70.45540        -2.06089
O         60.24198        63.11618         2.85014
H         60.30586        64.10391         2.96666
O         48.08320        46.70154        -1.33645
H         48.19758        46.04566        -2.06880
O         45.47663        35.39677        -0.12559
H         45.47153        34.41640        -0.09214
O         61.72998        60.83503         2.80738
H         61.38038        61.70315         3.13262
O         23.18453        75.45250        -1.81943
H         22.85325        75.02436        -1.00355
O         33.51944        56.99379        -2.72710
H         33.02668        57.73232        -3.15303
O         60.29389        65.85991         2.52737
H         61.07019        66.46998         2.57968
O         53.46447        50.75109        -0.20817
H         54.23285        51.10527        -0.70512
O         45.33870        39.44493         0.76174
H         44.62076        39.92282         1.24280
O         33.51074        64.67819         3.21962
H         33.00303        65.48659         3.46666
O         61.49101        68.45611         1.70153
H         62.42855        68.75764         1.69130
O         53.65444        60.91190         2.66344
H         53.13743        60.19249         3.08936
O         35.26856        59.69314        -1.46437
H         34.66439        59.89571        -2.21493
O         47.66550        44.34900        -1.96447
H         46.74499        44.59170        -2.20575
O         44.47019        67.78569         3.13437
H         44.77813        66.88278         3.38143
O         28.40552        58.63634        -1.91954
H         28.79715        58.81827        -2.79822
H         23.97538        74.94973        -3.64703
H         25.90320        75.39937        -1.79431
H         28.22748        75.39909        -0.92146
H         30.55276        75.35880         0.03181
H         32.84499        75.34996         0.90525
H         35.35263        75.32447         1.35750
H         37.74309        75.30513         1.60642
H         40.17803        75.33995         1.42918
H         42.63495        75.36196         1.18825
H         45.00872        75.40251         0.59838
H         47.55677        75.46867         0.35604
H         49.97891        75.49521        -0.19289
H         52.47679        75.42063        -0.44692
H         54.90266        75.14750        -1.03779
H         57.22215        75.03898        -1.53127
H         59.49959        74.82679        -2.45778
H         61.73927        74.63183        -3.40132
H         64.19306        74.52271        -4.17631
H         66.47109        74.24760        -5.11123
H         22.63711        69.57376        -3.01174
H         21.51575        71.67827        -3.39889
H         21.54771        74.12072        -3.52292
H         24.95361        65.14719        -2.14636
H         23.70046        67.29209        -2.44054
H         27.29917        60.86149        -1.62116
H         26.14444        63.04508        -1.96108
H         29.74171        56.57418        -0.99707
H         28.80431        58.91823         0.07182
H         32.07306        52.20594        -0.27597
H         30.71477        54.60725        -0.82117
H         34.56616        48.12785        -1.73617
H         33.30263        50.18889        -1.32747
H         37.09439        43.70968        -1.76170
H         35.81385        45.85050        -1.77704
H         39.49696        39.50543        -1.61006
H         38.29676        41.63200        -1.65382
H         42.09046        35.34532        -2.39820
H         40.80814        37.37854        -1.92234
H         45.58851        32.16568        -3.13362
H         43.39473        33.28181        -2.86139
H         47.70907        33.40129        -2.83432
H         48.91683        35.44042        -2.18638
H         50.11615        37.54062        -1.49712
H         51.31563        39.64445        -0.93909
H         52.50188        41.73556        -0.40165
H         53.69651        43.82140         0.06595
H         54.89237        45.92489         0.62857
H         56.08859        47.99328         1.09897
H         57.31552        50.13931         1.16624
H         58.50287        52.24306         0.97702
H         59.74617        54.38868         0.87728
H         60.97803        56.56402         0.87995
H         62.15561        58.65150         1.18311
H         63.09727        60.72107         0.11051
H         64.08520        62.68786        -0.94468
H         65.30383        64.72424        -1.59819
H         66.51089        66.68021        -2.29778
H         67.72869        68.67478        -3.09157
H         68.81400        70.71943        -4.28834
H         68.56509        72.96469        -5.28696
