         344
 CSIRO Nanostructure Databank - Neutral Graphene Oxide Data Set
C          1.32812         1.93616        -1.00871
C          1.28984         3.34958        -0.80965
C          2.43888         1.11220        -0.98683
C          2.37141         4.17632        -0.51324
C          1.14611         6.38990        -0.51418
C          1.17799         7.73013        -0.32469
C          2.37918         5.64049        -0.93267
C          2.40843         8.48674        -0.36273
C          1.25355        10.69896        -0.80906
C          1.30526        12.03330        -0.99717
C          2.31514         9.96198        -0.03219
C          2.44872        12.84162        -0.59858
C          1.38945        15.01525        -1.27495
C          1.36039        16.36472        -1.18124
C          2.47178        14.21832        -0.72273
C          2.34046        17.12602        -0.32175
C          2.48895        18.58263        -0.68904
C          3.67895         1.53359        -0.40853
C          3.58770         3.64231        -0.02678
C          4.97867         1.24296        -0.77266
C          4.84662         4.24216        -0.18651
C          3.66026         6.37024        -0.55137
C          3.62853         7.81878        -0.42324
C          4.84567         5.67304        -0.40059
C          4.87278         8.53255        -0.16296
C          3.63558        10.68231        -0.08698
C          3.64744        12.11469        -0.14559
C          4.84957         9.95829         0.05172
C          4.79602        12.80696         0.21173
C          3.77946        14.95147        -0.52162
C          3.67086        16.42956        -0.23333
C          4.71075        14.28445         0.47698
C          4.83083        17.11960         0.03705
C          3.65597        19.24273        -0.53280
C          4.88153        18.56513        -0.13296
C          6.11497         2.04346        -0.37213
C          6.06266         3.46531        -0.10364
C          7.37359         1.40198        -0.40133
C          7.29522         4.17362         0.04923
C          6.17697         6.37911        -0.44584
C          6.08863         7.84412        -0.07378
C          7.22530         5.65133         0.40193
C          7.29740         8.53314         0.20331
C          6.06831        10.64885         0.30112
C          5.99592        12.08246         0.74478
C          7.29817         9.95711         0.31910
C          7.26287        12.86092         0.51996
C          6.04172        15.00613         0.51201
C          6.06562        16.40709         0.37395
C          7.24492        14.24281         0.59003
C          7.26864        17.15579         0.52609
C          6.09181        19.22233        -0.09854
C          7.31952        18.53480         0.20882
C          8.57949         2.08808        -0.18545
C          8.51731         3.51066        -0.01811
C          9.82934         1.38682        -0.08872
C          9.78310         4.25938         0.04726
C          8.54957         6.38853         0.32997
C          8.53909         7.81074         0.32519
C          9.76138         5.70303         0.35696
C          9.76922         8.52398         0.35782
C          8.55219        10.66770         0.38055
C          8.53679        12.16037         0.13277
C          9.75848         9.97467         0.34758
C          9.78809        12.87716         0.59380
C          8.50204        14.96912         0.88396
C          8.49279        16.47008         0.98806
C          9.78638        14.25087         0.77554
C          9.80250        17.25425         1.12773
C          8.56958        19.20811         0.12912
C          9.79358        18.58431         0.40576
C         11.04236         2.03028         0.15421
C         11.07100         3.51387         0.16468
C         12.28822         1.36184         0.22564
C         12.22501         4.20888         0.85127
C         11.00440         6.40215         0.40253
C         10.99101         7.80750         0.37421
C         12.26562         5.69267         0.56055
C         12.28442         8.51280         0.08964
C         11.03170        10.68633         0.37426
C         11.02778        12.13641         0.52765
C         12.23495         9.98211         0.39580
C         12.22501        12.82283         0.62683
C         11.00313        15.02494         0.86836
C         11.04312        16.41969         0.85134
C         12.25323        14.25671         0.92556
C         12.28436        17.13001         0.63351
C         11.02460        19.23766         0.22291
C         12.26641        18.57965         0.38668
C         13.51511         2.05034         0.35793
C         13.53641         3.49885         0.59569
C         14.73978         1.35797         0.25507
C         14.70062         4.17386         0.77356
C         13.45716         6.37668         0.73595
C         13.51571         7.80338         0.60658
C         14.68679         5.63145         1.21375
C         14.70767         8.50952         0.76882
C         13.49544        10.64995         0.50707
C         13.48259        12.11472         0.35445
C         14.69155         9.95397         0.68047
C         14.77823        12.86252         0.29028
C         13.57241        15.03320         0.79012
C         13.49057        16.45921         0.52202
C         14.81071        14.31579         0.46281
C         14.72403        17.13169        -0.03018
C         13.48706        19.27599         0.28797
C         14.74205        18.61527         0.25011
C         15.98740         2.00399         0.42516
C         16.00662         3.42969         0.93002
C         17.20338         1.33653         0.33349
C         17.15267         4.23159         0.31143
C         15.97029         6.38657         0.92667
C         15.97825         7.77563         0.86288
C         17.27505         5.62493         0.97931
C         17.22960         8.48258         0.73774
C         15.93823        10.71821         0.88569
C         16.02143        12.12910         0.54112
C         17.29090         9.92972         0.89587
C         17.23778        12.81962         0.52572
C         16.01765        14.99505         0.40378
C         16.01896        16.43145         0.32419
C         17.26083        14.25714         0.40619
C         17.22050        17.12573         0.31929
C         15.96685        19.27736         0.29097
C         17.22139        18.57972         0.27912
C         18.46590         2.02218         0.49427
C         18.46277         3.48372         0.39079
C         19.65942         1.35547         0.63732
C         19.62735         4.16794         0.18978
C         18.43158         6.38714         0.39836
C         18.44613         7.78588         0.44345
C         19.56855         5.62578        -0.22854
C         19.66513         8.53820         0.22466
C         18.48755        10.67628         0.49770
C         18.47849        12.08238         0.45534
C         19.68414         9.94129         0.21011
C         19.69247        12.80301         0.19863
C         18.47972        14.95459         0.38958
C         18.48106        16.41047         0.38419
C         19.70773        14.22300         0.28993
C         19.67556        17.11942         0.37562
C         18.44372        19.25558         0.28084
C         19.68752        18.55777         0.29629
C         20.95076         2.09543         0.88263
C         20.91581         3.50464         0.30991
C         22.18957         1.33679         0.44341
C         22.08766         4.15842         0.06654
C         20.90654         6.31353        -0.01157
C         20.93893         7.80291         0.12823
C         22.10922         5.54379        -0.54832
C         22.15483         8.54828        -0.24806
C         20.90583        10.67031        -0.06144
C         20.88552        12.07049        -0.10770
C         22.12776         9.91676        -0.30904
C         22.12423        12.84799        -0.32681
C         20.95852        14.93401         0.28242
C         20.99613        16.41703         0.58642
C         22.14791        14.26698         0.09056
C         22.09967        17.09419        -0.22643
C         20.91973        19.24949         0.23030
C         22.15674        18.57872         0.06420
C         23.39006         1.99437         0.31099
C         23.36425         3.47981         0.38472
C         24.66569         1.35663         0.16259
C         24.63312         4.24720         0.25881
C         23.39986         6.31552        -0.37110
C         23.35414         7.77180        -0.78857
C         24.58655         5.67843        -0.13397
C         24.64998         8.49737        -0.54183
C         23.36263        10.63099        -0.82677
C         23.42036        12.13527        -0.52130
C         24.64462         9.91603        -0.48425
C         24.56537        12.77070         0.29852
C         23.41988        14.97526         0.01622
C         23.42201        16.37955        -0.06322
C         24.65347        14.26075         0.03609
C         24.63722        17.08704        -0.12725
C         23.37845        19.23831         0.01768
C         24.62722        18.54126        -0.11920
C         25.87458         2.06947         0.08599
C         25.89519         3.50654         0.07547
C         27.13794         1.39066        -0.03118
C         27.08819         4.22217        -0.05720
C         25.86089         6.36766        -0.21298
C         25.85806         7.78516        -0.37720
C         27.08104         5.66771        -0.14934
C         27.10432         8.47539        -0.44277
C         25.82516        10.64026        -0.41211
C         25.92182        11.99308         0.25645
C         27.07671         9.91692        -0.65604
C         27.14927        12.79183        -0.14309
C         25.86497        14.95569        -0.02032
C         25.86958        16.37453        -0.12545
C         27.17496        14.24314         0.25521
C         27.11444        17.09815        -0.23573
C         25.83731        19.22363        -0.17440
C         27.08655        18.53425        -0.26749
C         28.33356         2.08241        -0.07428
C         28.34577         3.52943        -0.05379
C         29.61354         1.39918        -0.22660
C         29.55089         4.24654        -0.03287
C         28.32838         6.37045        -0.23623
C         28.33016         7.79790        -0.37272
C         29.55985         5.66718        -0.15604
C         29.58150         8.53122        -0.31137
C         28.39303        10.67821        -0.58388
C         28.33168        12.13622        -0.33126
C         29.59465         9.92862        -0.25918
C         29.60352        12.83871        -0.36937
C         28.38785        14.96837        -0.28995
C         28.34306        16.41310        -0.37470
C         29.55702        14.28367        -0.52222
C         29.55678        17.14003        -0.57261
C         28.29381        19.24388        -0.38316
C         29.52614        18.57304        -0.53885
C         30.78331         2.06551        -0.14641
C         30.83444         3.51369         0.27584
C         32.04333         4.25699        -0.21978
C         30.81080         6.38703        -0.25950
C         30.82347         7.78915        -0.28438
C         32.02621         5.59399        -0.39551
C         32.04617         8.57762        -0.37219
C         30.82361        10.68597         0.19478
C         30.79948        12.16298        -0.19284
C         32.05979         9.92177        -0.22277
C         32.01294        12.95372        -0.10999
C         30.81680        14.96524        -1.00272
C         30.79531        16.46819        -0.80430
C         32.03380        14.27071        -0.42655
C         31.95137        17.21509        -0.98063
C         30.74329        19.29829        -0.69795
C         31.92774        18.62793        -0.91100
O         24.01955         4.01067         1.60119
O         13.06850        14.59659         2.10846
O         22.86505        12.84506        -1.65996
O          3.53223         2.43201         0.67616
O         14.05943        12.49983        -0.98368
O         27.79405        10.33882        -1.88644
O         21.12966         6.86046         1.30512
O          8.30899        15.64736         2.19680
O         10.68353         4.05090        -1.13050
O         16.64530        10.39742         2.12624
O          6.76100         5.74333         1.77766
H          7.40008         5.26982         2.34985
O         27.31087        14.25058         1.72480
H         27.13172        13.33220         2.04056
O         30.88969        14.76499        -2.45795
H         30.84459        13.79882        -2.62084
O         21.71937        16.95483        -1.62485
H         22.43057        17.34767        -2.17245
O         14.57531         5.55373         2.68611
H         15.38192         5.05675         2.97912
O         21.93940         5.36128        -1.99419
H         22.32069         6.16877        -2.43076
O         11.99025         4.09279         2.29188
H         12.74212         4.55873         2.73403
O          9.91236        17.62626         2.53420
H          9.56719        16.85875         3.04805
O         24.04310        12.65941         1.66771
H         24.35711        13.43672         2.17805
O         21.34794        16.57232         1.99068
H         20.60909        16.21959         2.52906
O         19.30154         5.63439        -1.67508
H         20.14726         5.34914        -2.11572
O         23.29298        10.48615        -2.28515
H         22.93465        11.34574        -2.62705
O         12.43404         8.43717        -1.38485
H         11.59312         8.74794        -1.78311
O          8.58182        12.28100        -1.34579
H          9.41843        11.86600        -1.64765
O          2.36694         5.60910        -2.40714
H          2.28826         6.53752        -2.71330
O         26.25316        11.61682         1.64351
H         25.39008        11.49490         2.11214
O          4.14554        14.41812         1.81207
H          4.70276        13.86168         2.40576
O         30.82940        10.69116         1.66590
H         30.90013         9.75864         1.96159
O         16.23011         3.32361         2.36843
H         15.64864         2.61081         2.70683
O         16.81119         4.42867        -1.07480
H         17.58572         4.84980        -1.52583
O          1.88478        10.01553         1.38260
H          2.46126         9.40241         1.88626
O         17.59747         5.41776         2.39720
H         17.88149         6.28175         2.76468
O          4.46622        14.85493        -1.81278
H          3.89227        15.27295        -2.48864
O          6.64805         6.31549        -1.82076
H          5.95637         6.69957        -2.39866
O         23.14149         7.75738        -2.25379
H         23.18558         8.70708        -2.55155
O          5.80506        12.05726         2.23277
H          5.09217        11.40795         2.41817
O         30.95266         3.49347         1.74623
H         30.15523         3.03984         2.09361
O          1.76585        17.10197         1.03503
H          2.48853        17.30719         1.66556
O         14.61537        17.00514        -1.49715
H         15.39892        17.44929        -1.88604
O         21.08197         2.22734         2.34015
H         21.86556         2.79395         2.51293
H          0.40266         1.50195        -1.41926
H          0.35646         3.83721        -1.13307
H          2.37987         0.12825        -1.47624
H          0.19214         5.84649        -0.45244
H          0.25186         8.26786        -0.07394
H          0.37548        10.13482        -1.15771
H          0.46825        12.53188        -1.50837
H          0.57201        14.50242        -1.80602
H          0.52499        16.92492        -1.62852
H          1.58295        19.12764        -0.99543
H          5.17067         0.39744        -1.45070
H          3.71603        20.32059        -0.74987
H          7.40500         0.31633        -0.57820
H          6.13462        20.29940        -0.32045
H          9.81350         0.28969        -0.17977
H          8.57662        20.24714        -0.23571
H         12.31052         0.26701         0.11018
H         11.02425        20.28595        -0.11546
H         14.72485         0.28485         0.00789
H         13.46590        20.37678         0.25543
H         17.21579         0.25358         0.13252
H         15.98321        20.37502         0.37911
H         19.66886         0.25632         0.70242
H         18.45285        20.35568         0.24661
H         22.15872         0.23595         0.43060
H         20.91271        20.35011         0.27336
H         24.69926         0.25656         0.14291
H         23.40699        20.33267         0.13930
H         27.14465         0.29083        -0.07191
H         25.84178        20.32403        -0.16022
H         29.59870         0.31925        -0.43995
H         28.27613        20.34409        -0.38336
H         31.73653         1.52797        -0.26497
H         32.98047         3.69446        -0.34872
H         32.95407         6.10436        -0.69216
H         32.99391         8.05931        -0.57898
H         33.01810        10.45883        -0.28193
H         32.93326        12.46897         0.24774
H         32.97992        14.82768        -0.35784
H         32.90546        16.71396        -1.19574
H         30.71994        20.39709        -0.66345
H         32.86346        19.18827        -1.04667
