         244
 CSIRO Nanostructure Databank - Neutral Graphene Oxide Data Set
C          1.41099         1.93343         0.14908
C          1.27607         3.31770         0.09605
C          2.48557         1.30696         0.76051
C          2.30650         4.20262         0.65184
C          1.20388         6.28942        -0.23714
C          1.18626         7.60552        -0.57785
C          2.40914         5.59522         0.15226
C          2.43535         8.35974        -0.75114
C          1.30800        10.56643        -1.15570
C          1.27886        11.99610        -1.13363
C          2.41397         9.85136        -0.77908
C          2.41860        12.75273        -0.86620
C          1.26249        14.96575        -1.08930
C          1.28453        16.35457        -1.10734
C          2.44547        14.20836        -0.93756
C          2.49678        17.06193        -0.96407
C          2.53472        18.49706        -0.94834
C          3.61074         2.03531         1.44327
C          3.55334         3.55816         1.25037
C          4.89921         1.43714         0.94134
C          4.81921         4.30555         1.09774
C          3.62148         6.26771         0.21677
C          3.70432         7.64655        -0.31391
C          4.83800         5.60970         0.67036
C          4.90622         8.45795        -0.00024
C          3.57221        10.60422        -0.16215
C          3.65228        12.05503        -0.59396
C          4.88710         9.85667        -0.16257
C          4.85524        12.73845        -0.59095
C          3.68966        14.89896        -0.81590
C          3.71239        16.32975        -0.82094
C          4.91767        14.17415        -0.69918
C          4.94261        17.03045        -0.65871
C          3.71324        19.17121        -0.78359
C          4.95663        18.46527        -0.62855
C          6.08385         2.13317         0.93142
C          6.08397         3.55985         1.45515
C          7.32373         1.47655         0.67060
C          7.36172         4.30428         1.15060
C          6.15372         6.29426         0.33384
C          6.09084         7.80355         0.37939
C          7.39146         5.66142         0.95597
C          7.26340         8.54749         0.56934
C          6.10493        10.55447        -0.17246
C          6.11869        11.97218        -0.58747
C          7.31180         9.90931         0.19183
C          7.41895        12.71178        -0.57451
C          6.15374        14.87589        -0.57964
C          6.16114        16.30749        -0.52114
C          7.40628        14.18660        -0.43433
C          7.38504        17.01423        -0.33371
C          6.16781        19.14790        -0.45580
C          7.38928        18.44624        -0.30786
C          8.57162         2.08702         0.89002
C          8.60029         3.51786         1.29074
C          9.78989         1.40625         0.72369
C          9.90432         4.26961         1.11016
C          8.63846         6.42179         1.01343
C          8.39613         7.91676         1.33060
C          9.86001         5.74777         1.01437
C          9.60074         8.80052         1.31779
C          8.57797        10.64893         0.16518
C          8.63001        11.97154        -0.17548
C          9.78995         9.98518         0.65117
C          9.91830        12.71587        -0.38299
C          8.58672        14.87142        -0.17379
C          8.61006        16.30541        -0.16278
C          9.84996        14.12800         0.21752
C          9.84321        17.01446        -0.06024
C          8.63003        19.12584        -0.16695
C          9.83537        18.43466        -0.07682
C         11.05013         2.08063         0.64058
C         11.08094         3.51785         0.64045
C         12.26525         1.39069         0.45815
C         12.22792         4.19629         0.20708
C         11.16470         6.34910         0.76863
C         11.44309         7.71000         1.11899
C         12.21864         5.63605         0.20105
C         12.42273         8.49078         0.59399
C         11.08462        10.67510         0.57309
C         11.15028        11.98171         0.10717
C         12.37402         9.95808         0.82832
C         12.39178        12.69395        -0.04984
C         11.10006        14.90459        -0.10035
C         11.09477        16.27168        -0.09907
C         12.36724        14.15597        -0.45536
C         12.43403        16.99502        -0.17224
C         11.12288        19.23598        -0.09796
C         12.36913        18.44724         0.25876
C         13.48686         2.08026         0.21888
C         13.45834         3.49573        -0.02044
C         14.74163         1.43067         0.21658
C         14.65403         4.18464        -0.37497
C         13.34165         6.36273        -0.41906
C         13.44085         7.87239        -0.27618
C         14.57622         5.60339        -0.77905
C         14.78005         8.51848        -0.29730
C         13.66033        10.65725         0.50644
C         13.62514        12.07278         0.10739
C         14.84652         9.87913         0.09440
C         14.89628        12.73122        -0.03595
C         13.59612        14.83705         0.06770
C         13.42682        16.16743         0.71824
C         14.90224        14.22684        -0.31235
C         14.74808        16.88352         0.99782
C         13.44204        19.07424         0.78538
C         14.73151        18.38858         1.06626
C         15.94335         2.14307         0.00844
C         15.90442         3.54427        -0.33338
C         17.19636         1.49350         0.13487
C         17.14104         4.26308        -0.61556
C         15.89052         6.37882        -0.95705
C         15.94113         7.79839        -0.58823
C         17.15264         5.62619        -0.91070
C         17.29141         8.33700        -0.14689
C         16.09706        10.56634         0.05557
C         16.09021        12.02886         0.06697
C         17.27459         9.83688         0.00643
C         17.36877        12.71108         0.15925
C         16.10570        14.90256         0.28192
C         16.05040        16.21127         0.74600
C         17.41556        14.22289        -0.01963
C         17.23746        16.96774         0.98450
C         16.00830        19.09616         0.94574
C         17.20977        18.39489         1.05575
C         18.40246         2.17815        -0.10155
C         18.38837         3.54375        -0.50955
C         19.66070         1.49786         0.03734
C         19.61017         4.19348        -0.86564
C         18.34532         6.35978        -1.50001
C         18.47273         7.83556        -1.00848
C         19.60779         5.51886        -1.39978
C         19.52381         8.67058        -1.31953
C         18.59989        10.50196         0.21119
C         18.52078        12.00425         0.33536
C         19.48666        10.18882        -1.02230
C         19.83465        12.67521         0.62024
C         18.59955        14.84790         0.66493
C         18.55107        16.25933         1.19610
C         19.78887        14.18621         0.64880
C         19.75138        17.04871         0.67155
C         18.47198        19.11070         1.21219
C         19.68914        18.48743         1.14110
C         20.83115         2.11514        -0.30377
C         20.83322         3.45206        -0.82272
C         22.01712         4.00313        -1.36448
C         20.76669         5.94456        -2.04195
C         20.67936         8.30000        -2.13073
C         21.97648         5.22126        -2.02277
C         21.76777         9.11752        -2.32107
C         20.85104        10.87543        -0.90245
C         20.98392        12.12973        -0.19226
C         21.89617        10.35915        -1.63650
C         22.16203        12.85607        -0.09813
C         21.06304        14.87982         0.78952
C         21.05303        16.32443         0.98933
C         22.21323        14.16706         0.46354
C         22.16836        17.05799         1.30412
C         20.93017        19.17363         1.39876
C         22.10983        18.48432         1.47063
O         15.05539         5.94538        -2.09683
O          9.44104         3.80096         2.44845
O         13.22150        10.44282         1.91958
O         20.72335         7.09949        -2.84703
O          3.34974         7.75390        -1.74654
O         14.70317        17.54212         2.31108
O          6.86010        12.21421        -1.85110
O         10.62960         8.28482         2.11173
O         12.92049         7.27768        -1.49864
O          2.53782         4.14322         2.12310
O         15.05283        14.34649        -1.79058
H         14.17898        14.06144        -2.17338
O         20.15214        12.32216         2.03268
H         21.02593        12.72241         2.23631
O         18.81403        10.80190        -2.14874
H         19.41331        10.76670        -2.92313
O         11.00635        20.40517         0.71468
H         10.80436        20.12379         1.63026
O         17.54313         7.74739         1.17937
H         18.23424         8.31929         1.59950
O          6.34721         6.00644        -1.10189
H          5.61495         6.43832        -1.59486
O         12.73646        15.98059         1.98667
H         13.20924        16.55626         2.63878
O          6.07608         3.46149         2.91371
H          6.89839         3.00295         3.18904
O         10.04493        12.90831        -1.81612
H          9.89133        12.04929        -2.26124
O         12.43495        14.20229        -1.93595
H         12.44204        15.16481        -2.16556
O          7.94594         7.87819         2.72600
H          8.73536         7.67289         3.27371
O         18.01929         6.48701        -2.91839
H         18.83470         6.79495        -3.37622
O          9.81638        13.95723         1.66552
H         10.24493        14.73609         2.08003
O          3.22671        10.67036         1.27901
H          2.40701        11.20465         1.35584
O         19.23771         9.89829         1.37019
H         19.67050        10.62792         1.88691
O         12.92789        16.95985        -1.54142
H         12.41704        17.60843        -2.06965
O         18.73081        16.17199         2.64454
H         17.90860        15.80574         3.03269
O         17.69398        14.43574        -1.44301
H         16.83101        14.35560        -1.92219
O         19.63848        17.07558        -0.77521
H         20.41561        17.55402        -1.13070
O          3.51052         1.75963         2.87290
H          3.00657         2.50722         3.26616
H          0.63073         1.31309        -0.31760
H          0.44544         3.75472        -0.47488
H          2.51277         0.20824         0.80143
H          0.24669         5.75826        -0.13546
H          0.22411         8.12311        -0.70036
H          0.40754        10.04487        -1.51249
H          0.33949        12.48965        -1.41680
H          0.29495        14.45336        -1.18234
H          0.34460        16.91416        -1.21950
H          1.59079        19.04953        -1.06489
H          4.89945         0.36893         0.67274
H          3.72690        20.27085        -0.76712
H          7.29636         0.42383         0.34900
H          6.17361        20.24804        -0.43884
H          9.76792         0.32224         0.53478
H          8.64405        20.22578        -0.16664
H         12.27820         0.29287         0.52692
H         11.26461        19.60525        -1.15648
H         14.79130         0.35237         0.42952
H         13.36779        20.15010         1.01581
H         17.22510         0.43165         0.42046
H         16.00975        20.19234         0.85944
H         19.66112         0.45881         0.39695
H         18.42381        20.18605         1.44570
H         21.78796         1.57781        -0.23109
H         22.95023         3.42338        -1.32446
H         22.86114         5.62636        -2.53038
H         22.59148         8.76253        -2.95344
H         22.86129        10.88115        -1.68992
H         23.09059        12.46982        -0.54339
H         23.18582        14.68066         0.46212
H         23.13239        16.55689         1.47823
H         20.90672        20.25679         1.59146
H         23.04198        19.01872         1.70280
