         273
 CSIRO Nanostructure Databank - Neutral Graphene Oxide Data Set
C        -11.03573         0.77764        -0.79531
C         -9.72893         1.53751        -0.75345
C         -8.71072         0.80101         0.10332
C         -7.39987         1.51291         0.30293
C         -6.35247         0.78401         1.13982
C         -5.05102         1.57105         1.22489
C         -3.87600         0.74491         1.76695
C         -2.52798         1.60790         1.79465
C         -1.23285         0.79032         1.65968
C         -0.04092         1.34947         0.88219
C          1.30266         0.78717         1.32074
C          2.44656         1.45973         1.08008
C          3.77072         0.76850         1.20822
C          5.04695         1.54048         1.11345
C          6.44339         0.88182         0.86474
C          7.22860         1.25311        -0.43035
C          8.63695         0.60118        -0.43814
C          9.92313         1.38470        -0.61190
C         11.19186         0.63049        -0.43289
C         -9.78151         3.01456        -0.40015
C         -8.67157         3.70606        -0.04906
C         -7.37902         3.00132         0.20121
C         -6.28650         3.71767         0.95429
C         -5.04573         2.93560         1.23640
C         -3.72889         3.65343         1.24321
C         -2.59564         2.75722         0.75934
C         -1.27580         3.50750         0.61612
C         -0.08842         2.83993         0.63001
C          1.14753         3.40388         0.02039
C          2.50901         2.75607         0.31216
C          3.54432         3.72004         0.88144
C          4.90360         3.06076         1.07982
C          6.12826         3.84913         0.76713
C          7.46259         2.72267        -0.98086
C          8.66745         3.53711        -0.54125
C          9.86855         2.84304        -0.47033
C         -8.68699         5.22053         0.13322
C         -7.26327         5.82851        -0.03104
C         -6.26387         5.21491         0.95278
C         -4.99457         5.98495         1.48020
C         -3.68301         5.19615         1.14840
C         -2.55841         5.73318         0.37413
C         -1.42767         4.86374         0.00660
C         -0.23640         5.48339        -0.71145
C          1.10340         4.78479        -0.55945
C          2.40213         5.61271        -0.59982
C          3.42957         5.14668         0.43793
C          4.39914         6.03214         0.83701
C          6.18237         4.70796        -0.30986
C          7.33585         5.63665        -0.39827
C          8.59179         4.95237        -0.38781
C         -7.29579         7.32951         0.00794
C         -6.23061         8.06872         0.36867
C         -4.99664         7.54615         1.10656
C         -3.68566         8.02188         0.30705
C         -2.52265         7.11558        -0.06584
C         -1.63011         7.61185        -1.27088
C         -0.19737         6.86426        -1.37812
C          1.01447         7.69421        -1.02726
C          2.13108         7.13395        -0.49235
C          3.34135         7.98407        -0.32433
C          4.58760         7.34331         0.15763
C          5.83627         7.68790        -0.68911
C          7.16244         7.01561        -0.37111
C         -6.20531         9.53841         0.25969
C         -5.07059        10.12439        -0.15633
C         -3.97796         9.23189        -0.69209
C         -2.65309         9.88545        -0.84030
C         -1.47800         9.16259        -1.09993
C         -0.26802         9.82204        -1.25944
C          1.00219         9.09865        -1.61120
C          2.28955         9.87346        -1.45637
C          3.43515         9.26952        -1.06192
C          4.76006         9.89666        -1.07016
C          5.89135         9.19237        -0.83890
C        -11.11065        -0.56108        -0.71425
C         -9.98844        -1.48713        -0.27908
C         -8.74045        -0.69327         0.10590
C         -7.39247        -1.34423        -0.02338
C         -6.18655        -0.59609         0.45806
C         -4.94949        -1.39367         0.70383
C         -3.72678        -0.56651         0.97562
C         -2.46356        -1.32948         1.00437
C         -1.22346        -0.70318         1.55396
C          0.07546        -1.36301         1.31505
C          1.35253        -0.67686         1.77476
C          2.56070        -1.41594         1.22026
C          3.71856        -0.64117         0.66468
C          5.02373        -1.39205         0.83396
C          6.34600        -0.68060         0.83902
C          7.55374        -1.47032         0.39769
C          8.84446        -0.71662         0.30379
C         10.01177        -1.52625        -0.21763
C         11.22029        -0.72527        -0.42060
C         -9.65511        -2.64625        -1.24469
C         -8.53542        -3.50056        -0.65832
C         -7.28566        -2.78547        -0.39909
C         -6.03742        -3.32867        -0.62135
C         -4.84863        -2.73738         0.04098
C         -3.51098        -3.30095        -0.41163
C         -2.38284        -2.69404         0.41946
C         -1.12135        -3.09112         0.13581
C          0.09067        -2.62269         0.79545
C          1.20978        -3.51359         1.21130
C          2.56954        -2.88320         1.17240
C          3.79382        -3.65315         0.67146
C          5.00388        -2.81194         0.25647
C          6.30163        -3.45597         0.79909
C          7.55106        -2.83047         0.31875
C          8.82956        -3.66449         0.37161
C          9.99356        -2.88488        -0.21049
C         -8.65922        -4.84693        -0.41190
C         -7.55645        -5.69562         0.03927
C         -5.80178        -4.59417        -1.38064
C         -4.67707        -5.48084        -0.91290
C         -3.55234        -4.87006        -0.44303
C         -2.35158        -5.70891        -0.12290
C         -1.01432        -5.21826        -0.51099
C          0.13883        -5.93194        -0.56927
C          1.39993        -5.18187        -0.69037
C          2.57962        -5.86991        -0.14377
C          3.81320        -5.13352         0.20289
C          5.10531        -5.85020        -0.19253
C          6.37697        -5.24042        -0.74530
C          7.64839        -5.89591        -0.33971
C          8.75934        -5.14706        -0.04960
C         -7.33699        -6.97719        -0.48729
C         -6.08130        -7.65732        -0.57297
C         -4.82187        -6.99839        -1.18566
C         -3.51404        -7.83644        -0.97259
C         -2.43229        -7.21268        -0.13851
C         -1.17676        -7.98452        -0.55208
C          0.08723        -7.31816         0.00259
C          1.40650        -8.09430        -0.17856
C          2.60862        -7.23418        -0.43042
C          3.82710        -7.80289        -0.90491
C          5.06857        -7.22542        -0.76057
C          6.31078        -7.99312        -0.74344
C          7.52290        -7.34792        -0.46727
C         -6.10617        -9.07089        -0.53463
C         -4.96246        -9.85993        -0.51371
C         -3.65942        -9.30065        -0.59119
C         -2.51571       -10.05854        -0.34893
C         -1.19364        -9.47937        -0.31877
C         -0.02186       -10.20214        -0.24075
C          1.35884        -9.61080        -0.18712
C          2.59469       -10.48477        -0.32627
C          3.77613       -10.01712        -0.82780
C          5.18128       -10.33685        -0.57717
C          6.24042        -9.46172        -0.64609
O         -1.21427         4.71244        -1.44982
O          3.55155        -3.54624         2.08659
O         -2.51288         8.08837         1.07882
O          9.19242         0.74105        -1.75234
O         -1.08807        -0.01823         2.84853
O         -6.87161         4.48482         2.06318
O          3.66521        -8.92419        -1.71152
O          1.06634         3.62131        -1.43894
O          6.32583        -4.22117         1.75337
O         -2.30323         7.36581        -2.43744
O          4.08023         3.51367         2.21063
O         -5.06692        -2.61264         1.49815
O         -6.52677        -0.56463        -0.95013
O          6.34948        -4.60725        -1.80211
O         -6.87818         2.16042        -0.89491
O          1.60526        -8.86080         1.06995
O         -2.79676        -7.82877        -2.28493
O          4.53850         1.01266         2.40209
O          5.74937        -1.23633         2.06737
O         -2.87757        -0.44792        -0.19195
O         -3.28409         4.43209         2.35747
O         -6.48032        -4.88134        -2.36998
O          1.53814        -4.07842        -1.22988
O         -2.54872        -6.53928         1.10090
O         -1.31354        -7.81373        -2.00940
O         -9.07365         0.07578         1.31505
O          6.96108         2.94870        -2.08391
O          3.93567         8.31615         1.02917
O         -4.26483         0.45921         3.07811
O         -4.86399         8.28974         2.23100
O         -0.95597        -3.92694        -0.97904
O          0.99191        -4.60759         1.72309
O          9.21199        -0.36467         1.66931
H          9.31885        -1.20418         2.16780
O         -0.04111         6.54746        -2.78382
H         -0.99305         6.55809        -3.12144
O         -9.21497        -2.08763        -2.47449
H         -8.80773        -2.78601        -3.02563
O          7.07137         3.99342         1.76878
H          6.99080         3.22702         2.38144
O         -4.50700         8.62313        -1.86974
H         -3.76285         8.11922        -2.32631
O          3.09355         2.33808        -0.95221
H          2.81800         2.99418        -1.63768
O         -0.15316        -7.22142         1.41825
H          0.53000        -6.63804         1.81665
O         -2.46586         2.19552         3.08789
H         -3.09003         1.64658         3.64283
O         -9.24763         5.58175         1.39262
H         -8.64150         5.24561         2.09364
O          5.31766         4.55776        -1.34398
H          5.36259         5.34353        -1.94264
O         -5.11856        -7.14028        -2.58773
H         -5.77659        -6.43811        -2.83356
O          5.11188         5.88183         1.98155
H          5.66604         6.67075         2.13823
O          4.97751        -2.56905        -1.15853
H          5.28509        -3.34610        -1.69125
O         -0.25531         0.78197        -0.46181
H          0.39385         1.19387        -1.07565
O        -10.44026        -2.14732         0.92938
H        -10.44834        -1.46132         1.63541
O         -3.37514        -2.89274        -1.78499
H         -2.43838        -3.01506        -2.05610
O          7.22143         1.26496         2.00886
H          6.79104         0.84615         2.78847
O          6.47480         0.59549        -1.45833
H          6.41563         1.24229        -2.21074
O         -6.69671        -5.27344         0.98255
H         -6.92917        -4.38908         1.33611
O          5.46586         7.16920        -2.02517
H          6.13333         7.49469        -2.66596
O          3.42090        -0.47589        -0.75117
H          3.81563        -1.23045        -1.25523
O          2.94036         5.46390        -1.93661
H          2.20520         5.62667        -2.56919
O         -2.92924         2.25645        -0.53705
H         -2.30448         1.53159        -0.77866
O         -6.76579         5.44169        -1.34394
H         -7.06154         6.10205        -2.00479
O         -6.80767         0.60089         2.48126
H         -5.97688         0.48380         3.03704
O          0.88197         8.98489        -3.07083
H          0.42322         8.12067        -3.26690
O         -5.12028         6.01238         2.89321
H         -4.78638         5.16471         3.26086
O         -9.21647         1.47245        -2.11547
H         -8.27447         1.77606        -2.08877
O          9.10583        -3.76456         1.80936
H          8.28613        -4.12822         2.22605
O          4.65329        -5.85546         1.17414
O          1.48120        -0.70550         3.21445
H          1.60798        -1.63155         3.50893
H         12.18693        -1.25133        -0.44071
H         12.13345         1.19975        -0.46640
H         10.79587         3.37411        -0.20215
H          9.52921         5.52734        -0.31800
H          8.06196         7.65376        -0.39332
H          6.87131         9.69379        -0.84533
H          4.81693        10.97796        -1.26939
H          2.31761        10.87040        -1.92322
H         -0.29193        10.90879        -1.44963
H         -2.53796        10.88595        -0.38662
H         -4.97023        11.21652        -0.23484
H         -7.09092        10.12373         0.54967
H         -8.18107         7.82541        -0.42283
H         -9.34429         5.66787        -0.65792
H        -10.71994         3.56115        -0.58628
H        -11.94430         1.34928        -1.04400
H        -12.09303        -1.04623        -0.83421
H        -10.57261        -3.28378        -1.39826
H         -9.57607        -5.36119        -0.74193
H         -8.22104        -7.51086        -0.87509
H         -7.07803        -9.56062        -0.36945
H         -5.06180       -10.94266        -0.34624
H         -2.62889       -11.13279        -0.13370
H         -0.09113       -11.30099        -0.18706
H          2.60293       -11.36088         0.34172
H          5.41961       -11.37483        -0.29316
H          7.22530        -9.91978        -0.44924
H          8.42328        -7.95986        -0.29820
H          9.70379        -5.68594         0.14101
H         10.89956        -3.44419        -0.49298
