         244
 CSIRO Nanostructure Databank - Neutral Graphene Oxide Data Set
C          1.71419         2.35177        -1.77395
C          1.54400         3.64725        -1.39424
C          2.70193         1.49950        -1.18006
C          2.19361         4.12599        -0.12193
C          1.15136         6.37112         0.29720
C          1.18222         7.79051         0.39015
C          2.27912         5.64281         0.01858
C          2.36583         8.51907         0.28507
C          1.18066        10.72430         0.33400
C          1.18366        12.10292         0.36117
C          2.38957         9.97999         0.36811
C          2.39569        12.83400         0.44788
C          1.20181        15.04788         0.52279
C          1.20907        16.43297         0.48881
C          2.41347        14.27567         0.51742
C          2.41458        17.16389         0.50172
C          2.46323        18.56841         0.39829
C          3.66955         2.00488        -0.31427
C          3.53251         3.41387         0.14107
C          4.90641         1.32479        -0.14118
C          4.80426         4.14915         0.43175
C          3.55387         6.36052        -0.14404
C          3.60445         7.81851         0.09695
C          4.85552         5.58498         0.01693
C          4.84019         8.48196         0.21395
C          3.61451        10.67186         0.44129
C          3.62704        12.11004         0.50553
C          4.87384         9.93679         0.40784
C          4.85491        12.82695         0.60364
C          3.65161        14.94577         0.54939
C          3.70889        16.43715         0.77392
C          4.87768        14.23097         0.56137
C          4.86542        17.06279         0.00253
C          3.67497        19.25113         0.33553
C          4.91742        18.56127         0.22436
C          6.11311         1.97249         0.18107
C          6.13368         3.40838         0.67177
C          7.34043         1.30523         0.09850
C          7.35967         4.18513         0.23486
C          6.10393         6.32855         0.22346
C          6.06199         7.72938         0.23425
C          7.32981         5.58083         0.22412
C          7.34577         8.44283         0.35930
C          6.06496        10.62799         0.52746
C          6.10633        12.07339         0.95913
C          7.35286         9.91527         0.53411
C          7.39521        12.80193         0.62134
C          6.15386        14.96223         0.52950
C          6.16596        16.35102         0.30270
C          7.39078        14.24908         0.61626
C          7.38199        17.06282         0.15620
C          6.12552        19.22257         0.16502
C          7.38029        18.52418         0.03169
C          8.58507         2.00785         0.12896
C          8.58605         3.44880         0.11207
C          9.81265         1.32056         0.06935
C          9.81897         4.11612        -0.13247
C          8.64031         6.33901         0.23254
C          8.51617         7.77346        -0.19185
C          9.76823         5.57157        -0.41725
C          9.70067         8.56950        -0.48962
C          8.59250        10.66644         0.23211
C          8.56999        12.09138         0.39880
C          9.75719        10.00457        -0.13318
C          9.88574        12.75550         0.46954
C          8.61181        14.97358         0.52150
C          8.60483        16.36147         0.25773
C          9.89330        14.25239         0.66131
C          9.86084        17.07276        -0.07193
C          8.55182        19.24412        -0.09952
C          9.84566        18.59185        -0.30076
C         11.04922         1.99882        -0.06983
C         11.01905         3.42158        -0.28842
C         12.28539         1.30601         0.05900
C         12.28086         4.15184        -0.54612
C         11.04158         6.33210        -0.69229
C         11.02387         7.83332        -0.69762
C         12.31699         5.63577        -0.48039
C         12.26881         8.57525        -0.46712
C         11.01909        10.70270        -0.31054
C         11.09643        12.06378        -0.01661
C         12.24795         9.94841        -0.52580
C         12.34053        12.81476        -0.17403
C         11.19838        14.97273         0.49587
C         11.17365        16.49457         0.28914
C         12.36807        14.22552         0.07104
C         12.41316        17.23330        -0.00971
C         11.11114        19.31379        -0.18387
C         12.36615        18.68271        -0.15255
C         13.52665         1.97187         0.06539
C         13.56300         3.41525        -0.29015
C         14.75123         1.33925         0.30380
C         14.71565         4.21010         0.27993
C         13.50795         6.33420        -0.30509
C         13.54168         7.84180        -0.10754
C         14.75048         5.65196        -0.14673
C         14.76942         8.46996        -0.79428
C         13.50153        10.69269        -0.92905
C         13.51551        12.13571        -0.52997
C         14.79256         9.97133        -0.61024
C         14.79016        12.85804        -0.88303
C         13.50397        15.01464        -0.56036
C         13.58033        16.44479        -0.06012
C         14.82318        14.27758        -0.29413
C         14.84403        16.97086         0.22896
C         13.54915        19.47967        -0.40135
C         14.83518        19.09327        -0.00688
C         16.00025         2.05373         0.27253
C         16.01651         3.47429         0.16117
C         17.23113         1.37091         0.36943
C         17.22538         4.19980         0.11863
C         15.99540         6.34606        -0.15332
C         16.02628         7.77716        -0.34304
C         17.21294         5.62364        -0.01761
C         17.20978         8.51320        -0.15965
C         15.99281        10.64922        -0.44857
C         16.04915        12.11267        -0.47181
C         17.22200         9.91221        -0.27482
C         17.21665        12.80459        -0.22689
C         16.07797        15.02981        -0.75555
C         16.08995        16.42688        -0.17330
C         17.30852        14.25004        -0.34577
C         17.25307        17.18048        -0.22385
C         16.11467        19.46566        -0.46612
C         17.28115        18.64046        -0.31271
C         18.45510         2.07443         0.39069
C         18.46818         3.49110         0.25061
C         19.69731         1.38174         0.59849
C         19.70305         4.21341         0.36522
C         18.50826         6.36854        -0.24025
C         18.43325         7.77570         0.35215
C         19.73432         5.62898         0.24595
C         19.73828         8.52185         0.17234
C         18.51867        10.67206        -0.42547
C         18.45203        12.05308         0.23133
C         19.75503         9.91362         0.00263
C         19.74730        12.81607         0.01824
C         18.48666        14.94430        -0.20065
C         18.52052        16.41696        -0.59766
C         19.74652        14.23147        -0.01330
C         19.75665        17.14568        -0.15875
C         18.53834        19.24949        -0.48461
C         19.77013        18.54607        -0.27305
C         20.87098         2.07014         0.74343
C         20.90176         3.50061         0.65990
C         22.09500         4.22949         0.87570
C         20.92553         6.33667         0.47375
C         20.94808         7.80398         0.34739
C         22.09966         5.61042         0.80842
C         22.15478         8.52583         0.37267
C         20.97273        10.63334         0.07409
C         20.96622        12.10416        -0.01047
C         22.16349         9.91348         0.27556
C         22.16898        12.83249        -0.08855
C         20.97213        14.94170         0.05173
C         20.94262        16.41742         0.39721
C         22.17096        14.22363        -0.00948
C         22.22309        17.17844         0.20808
C         21.00564        19.24952        -0.17679
C         22.21085        18.53661        -0.00176
O          7.54181         9.05363         1.76310
O         11.31529        15.92163         1.63315
O          9.84944        17.60105        -1.42380
O         13.14772         3.65723        -1.65424
O         10.01159        13.36903         1.82157
O          3.89350         3.77844         1.52874
O          4.30399         5.84661        -1.31839
O         10.17092         5.82992        -1.77873
O         10.28623         8.35376        -1.84404
O         14.87414        18.11319         1.02375
O         14.80893        12.94485        -2.35692
H         14.40629        12.09140        -2.68713
O         13.74295         8.05313         1.31896
H         13.05406         7.55859         1.81007
O          6.09837        12.00770         2.43518
H          6.80922        11.38421         2.70224
O         20.69833        16.41670         1.87730
H         20.75990        17.35030         2.17542
O         18.65403         6.54555        -1.68767
H         18.73117         5.65426        -2.08910
O         18.66723        10.91705        -1.85848
H         18.84421        10.05643        -2.29338
O         14.41477         4.26136         1.73127
H         15.17695         4.69445         2.17276
O         13.41868        10.67754        -2.42824
H         13.59394         9.73689        -2.69515
O         18.57314        16.42345        -2.06615
H         17.71586        16.02789        -2.37870
O          9.05806         6.41905         1.64832
H          8.44691         7.04506         2.10116
O         14.59180         8.20713        -2.23422
H         15.47363         8.26039        -2.66028
O          1.31406         3.66274         0.94320
H          1.83498         3.70826         1.77572
O         18.24436         7.60950         1.78362
H         18.19074         8.50186         2.18650
O          6.30330         3.32366         2.11755
H          5.40942         3.14439         2.49222
O         13.21989        15.08624        -1.97613
H         13.61636        14.28936        -2.41079
O          4.59215        16.85753        -1.41177
H          5.32131        17.26731        -1.92270
O          4.01042        16.63546         2.18949
H          3.31491        16.18418         2.71195
O         14.96441        14.16823         1.13854
H         14.09389        13.91255         1.51640
O         18.32123        11.82379         1.66243
H         18.21589        12.69518         2.09924
O         16.10364        15.21614        -2.19515
H         15.89029        14.34598        -2.61510
H          1.14053         1.95185        -2.62319
H          0.82144         4.29819        -1.90598
H          2.82415         0.48096        -1.57663
H          0.19247         5.84932         0.42542
H          0.23035         8.30655         0.57157
H          0.21747        10.20298         0.25700
H          0.22232        12.63072         0.31096
H          0.23237        14.53290         0.50456
H          0.25508        16.97634         0.41042
H          1.52000        19.13533         0.37022
H          4.96240         0.28039        -0.48873
H          3.68026        20.35161         0.33383
H          7.35343         0.22215        -0.10006
H          6.14950        20.32170         0.23076
H          9.81444         0.22302         0.14759
H          8.51989        20.34295        -0.04659
H         12.26053         0.22425         0.26061
H         11.07043        20.41320        -0.16923
H         14.77324         0.25424         0.48648
H         13.42789        20.38767        -1.01048
H         17.23738         0.27555         0.47094
H         16.24187        20.42256        -0.99485
H         19.68187         0.28498         0.67774
H         18.58290        20.33712        -0.64732
H         21.81052         1.53277         0.93875
H         23.02060         3.68689         1.11660
H         23.03725         6.14509         1.01114
H         23.11344         8.00346         0.49093
H         23.12556        10.43792         0.34826
H         23.13220        12.30990        -0.15944
H         23.13604        14.74731         0.01004
H         23.17913        16.67463         0.40508
H         21.02057        20.34031        -0.30420
H         23.16255        19.08725        -0.03426
