         210
 CSIRO Nanostructure Databank - Neutral Graphene Oxide Data Set
C         31.35236        32.54105         3.72890
C         31.36945        33.73916         3.35143
C         31.20889        36.72394         2.47568
C         31.12208        37.91193         2.10059
C         30.91215        40.85862         0.99696
C         30.77319        42.01668         0.54205
C         33.56146        29.60254         3.30396
C         32.56150        30.25315         3.69365
C         33.46479        32.21195         2.61661
C         32.37946        31.62627         3.40393
C         33.41150        33.59193         2.20526
C         32.31052        34.44082         2.57423
C         33.25201        36.38291         1.34624
C         32.24019        35.79668         2.16180
C         33.17492        37.77030         0.94302
C         32.06606        38.61767         1.30684
C         33.05361        40.54340         0.07907
C         31.98208        39.94305         0.83411
C         32.98563        41.90082        -0.39235
C         31.77737        42.69902        -0.19513
C         32.89498        44.42228        -1.30896
C         31.83927        43.98358        -0.77200
C         36.01239        27.86367         2.44581
C         35.81240        29.24084         2.19406
C         34.69321        30.01908         2.57283
C         35.67611        31.99295         1.47757
C         34.60284        31.41476         2.23580
C         35.54751        33.33308         1.01590
C         34.44659        34.14855         1.37500
C         35.32162        36.07382         0.07162
C         34.35996        35.53690         0.92988
C         35.18768        37.44002        -0.44248
C         34.18435        38.35011         0.12276
C         35.33632        40.32720        -0.88507
C         34.18517        39.71958        -0.23938
C         35.34078        41.70663        -1.18494
C         34.14755        42.47354        -1.03367
C         35.38851        44.51145        -1.79323
C         34.15231        43.84226        -1.49987
C         35.57799        45.91751        -1.85573
C         38.22027        27.66530         1.52186
C         37.03505        27.20885         2.12131
C         38.12958        29.07934         1.23032
C         36.93486        29.84096         1.51595
C         37.97021        31.82222         0.48036
C         36.85067        31.21680         1.14861
C         37.88847        33.16917         0.02260
C         36.56672        33.83090         0.07192
C         37.67102        35.92184        -0.90589
C         36.43415        35.24990        -0.44387
C         37.62224        37.27952        -1.25763
C         36.39109        38.08112        -1.16766
C         37.70442        40.15363        -1.65364
C         36.48907        39.54430        -1.20464
C         37.85314        41.60446        -1.66711
C         36.53895        42.32160        -1.90886
C         37.87222        44.47775        -1.56601
C         36.62097        43.81495        -1.73864
C         37.94064        45.91500        -1.51859
C         36.68053        46.50610        -1.76613
C         40.29750        24.78805         0.67298
C         39.44234        25.44065         1.35517
C         40.52488        27.51611         0.70387
C         39.37896        26.89219         1.18096
C         40.59556        29.02951         0.60978
C         39.25951        29.73059         0.66909
C         40.31670        31.73827        -0.34870
C         39.17502        31.07982         0.25929
C         40.26463        33.12354        -0.65577
C         39.00703        33.83514        -0.51329
C         40.07449        35.88704        -1.41814
C         38.90902        35.21499        -0.93369
C         39.92374        37.13245        -2.02442
C         38.74607        37.90520        -1.85246
C         40.65027        40.39915        -2.00223
C         38.70845        39.29919        -2.14134
C         40.37620        41.62974        -1.39952
C         39.07016        42.28974        -1.50160
C         40.23156        44.39947        -0.80089
C         39.07859        43.73378        -1.30881
C         40.25969        45.83051        -0.64501
C         39.12431        46.57467        -1.11187
C         40.28972        48.59367        -0.47040
C         39.32095        47.96318        -0.96264
C         42.54672        24.64689        -0.70188
C         41.52266        24.88998         0.08693
C         42.60558        27.26356        -0.79645
C         41.82018        26.81074         0.45965
C         42.68896        28.75867        -0.71481
C         41.38930        29.49375        -0.65529
C         42.68842        31.67574        -0.95088
C         41.50976        31.00537        -0.62237
C         42.68952        33.09250        -1.09362
C         41.45520        33.78643        -1.07612
C         42.72899        35.98381        -1.49621
C         41.41130        35.26716        -1.21703
C         42.98287        37.46575        -1.68818
C         41.94308        38.27601        -2.09953
C         42.84545        40.21096        -0.91359
C         41.83282        39.65165        -1.74673
C         42.68046        41.54686        -0.43920
C         41.47434        42.26403        -0.71295
C         42.45821        44.26390         0.32996
C         41.38852        43.64528        -0.38453
C         42.44061        45.69473         0.53122
C         41.38568        46.49107        -0.02400
C         42.56177        48.44689         0.76016
C         41.41631        47.95232         0.08652
C         43.78563        25.12304        -0.90324
C         45.18100        27.20286        -0.56588
C         43.93518        26.48926        -0.89958
C         45.20519        28.73248        -0.50777
C         43.96209        29.46092        -0.90643
C         45.24099        31.72889        -1.03994
C         43.97470        30.94732        -1.13127
C         45.24653        33.08899        -1.30802
C         43.94101        33.76432        -1.43636
C         45.61529        36.14402        -1.44238
C         43.82724        35.07825        -1.83040
C         45.35681        37.41046        -0.86273
C         44.12613        38.10649        -1.07782
C         45.05990        40.04480         0.19076
C         44.01769        39.45356        -0.61838
C         44.89764        41.36731         0.69364
C         43.71173        42.13570         0.36384
C         44.45192        43.98862         1.88230
C         43.54852        43.46980         0.79529
C         44.54724        45.52162         1.84533
C         43.55623        46.29230         1.24120
C         43.44674        47.70699         1.24543
C         47.58050        27.43031        -0.65887
C         46.55757        26.73906        -0.81434
C         47.80563        28.83970        -0.63775
C         46.49651        29.52818        -0.45856
C         47.78896        31.71504        -0.93288
C         46.49550        31.03335        -0.68462
C         47.74397        33.12506        -1.08398
C         46.52396        33.81953        -1.20574
C         47.67757        35.84055        -0.25150
C         46.58268        35.25164        -0.98992
C         47.52479        37.18776         0.24207
C         46.37667        37.95739        -0.01736
C         47.29636        39.87809         1.27207
C         46.23427        39.29223         0.50461
C         47.16350        41.22828         1.73797
C         45.95210        41.95667         1.48190
C         46.87884        43.88640         2.66871
C         45.80225        43.28400         1.97320
C         46.62912        45.25152         3.08594
C         45.69835        45.90616         2.54283
C         50.30910        29.04501        -0.67958
C         48.97619        29.56571        -0.69360
C         50.28676        31.75058        -0.88849
C         49.01103        31.01615        -0.84090
C         50.29333        33.12028        -0.85087
C         49.03068        33.93236        -1.09964
C         50.11157        35.98518         0.03989
C         48.89117        35.15154        -0.20489
C         49.89800        37.02907         1.13067
C         48.56283        37.73675         1.12587
C         49.59328        39.74131         2.22350
C         48.48156        39.14260         1.56244
C         49.47114        41.09624         2.71711
C         48.24377        41.81743         2.47292
C         49.22240        43.63767         3.59635
C         48.07178        43.17625         2.92309
C         51.43799        29.53916        -0.55257
C         52.68733        31.80144        -0.38285
C         51.66466        30.94095        -1.06122
C         52.66701        33.03033        -0.37126
C         51.58526        33.98949        -0.74056
C         52.24396        35.86792         0.97160
C         51.39675        35.12693         0.22829
C         52.24128        36.98580         1.63977
C         51.07029        37.74762         1.71251
C         51.79358        39.77198         3.03786
C         50.84814        39.00180         2.33776
C         51.73060        40.92219         3.53922
C         50.57720        41.73429         3.42155
C         50.30732        43.05962         3.84429
O         45.04166        27.92536         0.69610
O         35.26147        37.51902        -1.91178
O         36.01970        34.11256        -1.27231
O         44.85026        35.70676        -2.54242
O         44.01209        30.02597        -2.31305
O         48.93297        36.72754         2.16622
O         46.47157        30.43814         0.68096
O         39.72901        39.85804        -2.91863
O         40.92332        37.66096        -2.83978
O         42.22231        35.83166        -0.10842
O         49.19454        34.48747        -2.46866
H         49.77758        33.88039        -2.97509
O         41.39846        29.50344         1.72867
H         40.84883        29.48498         2.53986
O         43.76433        43.67080         3.14116
H         44.32955        44.00002         3.87342
O         36.24336        42.12242        -3.34166
H         36.20472        41.15558        -3.50545
O         42.61261        26.70340         1.55228
H         42.08636        26.70053         2.37639
O         51.84848        34.54273        -2.03619
H         52.58007        35.19035        -1.95679
O         41.77095        26.88679        -1.91278
H         42.23980        27.11490        -2.74177
O         51.92162        30.90298        -2.43780
H         52.73864        30.38953        -2.60177
O         50.35580        36.72627        -1.18761
H         50.14648        36.11003        -1.93671
O         40.53733        29.16936        -1.78130
H         41.02439        29.38472        -2.60374
