         276
 CSIRO Nanostructure Databank - Neutral Graphene Oxide Data Set
C        -11.17979         0.71016        -0.11305
C        -10.00447         1.49528         0.34504
C         -8.77430         0.69315         0.62992
C         -7.47279         1.41672         0.39977
C         -6.20845         0.65189         0.22112
C         -4.90163         1.37552         0.08607
C         -3.63419         0.59159         0.11535
C         -2.32043         1.30996         0.17537
C         -1.34630         0.71672        -0.79727
C         -0.14081         1.55411        -1.11904
C          1.16402         0.79688        -1.09554
C          2.41729         1.68079        -0.90438
C          3.72136         0.84382        -0.94807
C          4.99565         1.57949        -1.30858
C          6.35936         0.84865        -1.15461
C          7.41212         1.70172        -0.46846
C          8.53939         1.06725         0.25979
C          9.93598         1.60304        -0.03873
C         11.01406         0.85611         0.72720
C         -9.84334         2.94164         0.03214
C         -8.65529         3.60496         0.17373
C         -7.45322         2.88523         0.73358
C         -6.13475         3.59750         0.48039
C         -4.85910         2.86655         0.31803
C         -3.64399         3.31311         1.11242
C         -2.32494         2.76574         0.50878
C         -1.29622         3.68070        -0.10123
C         -0.12756         3.03105        -0.81526
C          1.15566         3.85111        -1.03561
C          2.40413         3.12687        -1.50153
C          3.74021         3.90280        -1.80749
C          5.03087         3.06889        -1.58037
C          6.36166         3.82084        -1.45062
C          7.69958         3.01371        -1.23121
C          8.81818         3.78005        -0.51119
C          9.86191         3.11768         0.03971
C         -8.39328         4.99627        -0.14862
C         -7.27022         5.67602         0.27456
C         -6.32094         4.89715         1.23985
C         -4.98050         5.49571         1.88250
C         -3.60291         4.80602         1.48769
C         -2.30972         5.59325         1.36497
C         -1.19970         5.06870         0.45637
C          0.13977         5.77876         0.47935
C          1.40040         5.09448        -0.16710
C          2.44496         6.04109        -0.77772
C          3.69506         5.39628        -1.34561
C          5.02275         6.10890        -1.15495
C          6.31153         5.29650        -1.13816
C          7.50563         5.93303        -0.50594
C          8.85334         5.27644        -0.74515
C         -6.99388         6.95862        -0.36023
C         -6.26205         7.96037         0.20958
C         -4.83407         6.98345         1.67354
C         -3.68227         7.67975         1.66400
C         -2.32292         7.09616         1.61928
C         -1.09485         7.94532         1.41315
C          0.15005         7.22940         0.89660
C          1.27146         8.09168         0.39706
C          2.43604         7.49137        -0.32517
C          3.74351         8.24854        -0.31458
C          5.02709         7.47341        -0.53496
C          6.12282         7.77586         0.48239
C          7.42646         7.09552         0.16866
C         -5.76904         9.09228        -0.57676
C         -4.58604         9.77413        -0.54362
C         -3.48670         9.61432         0.40007
C         -2.16898         9.87972         0.20359
C         -1.17762         9.51262         1.31079
C          0.19504        10.13779         1.17980
C          1.34270         9.48019         0.93791
C          2.67756        10.17075         1.14399
C          3.84200         9.57236         0.37661
C          5.19735        10.05835         0.77308
C          6.26773         9.25414         0.75624
C        -11.18384        -0.64516        -0.18602
C        -10.01024        -1.48251         0.06748
C         -8.69236        -0.72046         0.03961
C         -7.50375        -1.50555         0.58642
C         -6.18989        -0.80189         0.58212
C         -4.90808        -1.61037         0.49352
C         -3.58500        -0.89843         0.29806
C         -2.40078        -1.59326        -0.33242
C         -1.36993        -0.75936        -1.07049
C         -0.12281        -1.41745        -1.72526
C          1.16899        -0.70771        -1.25480
C          2.49671        -1.45061        -1.51493
C          3.69908        -0.66969        -0.97645
C          4.98852        -1.43842        -0.78586
C          6.19535        -0.59106        -0.55900
C          7.02319        -0.79687         0.65692
C          8.42306        -0.33896         0.79826
C          9.60482        -1.15131         1.22935
C         10.90789        -0.42783         1.12770
C        -10.04234        -2.84255         0.16283
C         -8.82825        -3.65810         0.60216
C         -7.56162        -2.94527         0.17637
C         -6.32977        -3.67477        -0.21631
C         -4.99730        -3.05141         0.09639
C         -3.74327        -3.79383        -0.29537
C         -2.55165        -3.01596        -0.80055
C         -1.36895        -3.73169        -1.40108
C         -0.06200        -2.97461        -1.54640
C          1.22625        -3.69511        -1.25927
C          2.41642        -2.85218        -0.85732
C          3.59520        -3.49302        -0.17099
C          4.93901        -2.77559        -0.00669
C          6.23458        -3.59243        -0.31950
C          7.64886        -2.98678        -0.16689
C          8.49767        -3.43785         0.98025
C          9.48892        -2.62730         1.46519
C         -8.77180        -5.16346         0.35489
C         -7.64356        -5.85506         0.05406
C         -6.42036        -5.16069        -0.44476
C         -5.18256        -5.92302        -0.79557
C         -3.84642        -5.23258        -0.65468
C         -2.62280        -5.97998        -1.11158
C         -1.33566        -5.26008        -1.38195
C         -0.02742        -5.98754        -1.07631
C          1.25335        -5.17347        -0.92184
C          2.42575        -5.76721        -0.19527
C          3.59140        -4.93976         0.34534
C          4.86321        -5.73883         0.03137
C          6.20294        -5.05202        -0.00622
C          7.30044        -5.62383         0.83681
C          8.30819        -4.84377         1.33404
C         -7.48242        -7.33669         0.40782
C         -6.53495        -8.12109        -0.52471
C         -5.18414        -7.42568        -0.70464
C         -3.89046        -8.11492        -0.43606
C         -2.62653        -7.30763        -0.40113
C         -1.36209        -8.02357        -0.11921
C         -0.06191        -7.37370        -0.48524
C          1.05366        -7.88125         0.39152
C          2.30530        -7.08973         0.52480
C          3.60763        -7.76093         1.01178
C          4.83992        -7.20892         0.26726
C          6.20024        -7.88919         0.46885
C          7.07806        -7.02788         1.41274
C         -6.32853        -9.57459        -0.12072
C         -5.15672       -10.16450         0.16533
C         -3.87553        -9.39436         0.39597
C         -2.56482       -10.15178         0.20541
C         -1.38826        -9.50339         0.04735
C         -0.02162       -10.16339        -0.03313
C          1.01482        -9.36572         0.80462
C          2.40572        -9.97770         0.75711
C          3.55769        -9.27745         0.90206
C          4.85050        -9.94734         1.04594
C          6.03676        -9.31605         0.94013
O          3.66078         0.06048         0.29154
O          0.51865         6.18119         1.83561
O          1.06314        -0.14282         0.05940
O          2.36516        -5.80640        -1.63683
O         -1.73518         1.76950         1.41502
O         -2.12179        -5.87576        -2.45308
O         -2.03971        -7.24174         0.94122
O         -1.78930         4.82880        -0.86126
O         -3.50659        -4.81351         0.72053
O         -4.44805        -8.11667        -1.78173
O          8.20668        -2.40304        -1.08481
O         -5.41891         3.65961        -0.77129
O         -1.99091         0.18031        -1.98732
O          7.51061         1.87380         0.97058
O          1.46215         3.69554        -2.44282
O         -9.57518         1.06468         1.73465
O         -7.16191        -3.00841        -1.22269
O         -8.42837        -0.47948        -1.32528
O         -2.62003         4.88251         2.59011
O         -2.47596        -1.38085         1.10313
O          6.57109         4.79883        -2.49296
O         -4.26570         0.95961        -1.15771
O          1.35463         8.15778        -1.06621
O         -5.99028         7.79177         1.58461
O          2.55973        -2.75370         0.57525
O         -1.45341         7.47357         2.73792
O          6.38430        -4.55379        -1.38966
O          4.66474        -6.69840        -1.07162
O          0.77206        -3.50872        -2.62839
O          5.31130         7.31549        -1.93976
O          2.70087         6.04881        -2.20022
O          8.76208        -0.39567         2.23298
O          4.99176         2.08349        -2.65946
O         -7.03826         1.05953        -0.94244
O          3.83538        -7.38239         2.36266
O          6.08057        -1.48320        -1.70484
O         -6.05361        -5.43916        -1.84949
O          8.25357         2.70812        -2.48163
O         -7.17153         4.48498         2.37201
O         -2.40149        -3.14907        -2.24968
O         -3.85107         9.08024         1.65821
O         -7.48537         3.04727         2.19495
O          0.18632        -7.17801        -1.89445
O         -6.93119        -1.07110         1.83194
O          3.67688         9.50181        -1.06818
O         -0.50943         2.49768        -2.13486
O          1.26712        -7.01425         1.55360
O         -4.88089        -2.64380         1.50195
O          3.77779         4.02793        -3.23945
H          3.03928         4.61768        -3.51194
O          0.37827       -10.18117        -1.40256
H          1.28876       -10.53647        -1.46190
O          0.55954        -9.44114         2.16731
H          0.98372        -8.69452         2.65105
O         -1.62042        10.03458         2.56681
H         -2.52979         9.69912         2.74473
O         -6.90435        -7.37062         1.71448
H         -7.48660        -6.89404         2.34034
O          2.71444        -1.56976        -2.91668
H          1.95748        -2.06539        -3.31511
O          6.88336         0.59250        -2.44194
H          7.29088         1.42813        -2.82782
O         -8.82581        -3.56346         2.06081
H         -9.70824        -3.83019         2.39309
O          5.59343         7.16494         1.71162
H          6.12755         7.48957         2.46714
O          6.89542        -7.93529        -0.79198
H          6.31001        -7.51803        -1.46947
O         -3.87036         2.61137         2.34862
H         -3.15651         2.86268         2.97645
O          2.12893         4.53123         0.95955
H          1.89990         5.04289         1.77194
O          6.46912        -6.88530         2.69486
H          5.49221        -7.12161         2.65295
O          6.39039        -0.77899         1.78010
H          7.06308        -0.68319         2.51531
O          2.31903         2.06467         0.49592
H          2.32899         1.23345         1.02813
O         10.21364         1.24006        -1.40937
H          9.61893         1.78905        -2.00919
O         -5.11962         5.28167         3.29208
H         -4.23443         5.39212         3.70513
O         -3.91965        -8.99323         1.79006
H         -3.16121        -8.37965         1.94790
O          5.02617        -2.58522         1.41984
H          4.34619        -3.16386         1.85522
O          3.01692        10.07629         2.53585
H          2.25577        10.39201         3.06564
O          3.49908        -4.81192         1.77764
H          3.53451        -5.73352         2.19887
O          9.87243         5.88970         0.03476
H          9.69134         5.71617         0.98082
O         -7.18245        -8.13135        -1.81086
H         -6.49489        -8.32735        -2.48442
O         -0.18257        -1.18361        -3.13130
H         -1.04092        -1.51568        -3.47356
H         11.79038        -0.94448         1.53514
H         12.00820         1.32882         0.75369
H         10.71850         3.68220         0.44111
H          9.11891         5.42941        -1.82479
H          8.35011         7.53653         0.57770
H          7.26440         9.64197         1.01827
H          5.29743        11.12247         1.03580
H          2.57104        11.25936         0.86528
H          0.24383        11.19016         1.50334
H         -1.81328        10.30108        -0.74695
H         -4.39933        10.47498        -1.37267
H         -6.40285         9.30160        -1.45557
H         -7.37533         7.09026        -1.38490
H         -9.11345         5.51961        -0.79596
H        -10.72238         3.47802        -0.35731
H        -12.09840         1.26534        -0.35712
H        -12.11764        -1.16056        -0.45972
H        -11.01881        -3.35417         0.12345
H         -9.64238        -5.73071         0.73025
H         -8.49203        -7.83449         0.41780
H         -7.22931       -10.20488        -0.19844
H         -5.13808       -11.24595         0.37503
H         -2.57118       -11.24649         0.32940
H         -0.07995       -11.21395         0.36777
H          2.45841       -11.07995         0.74990
H          4.83169       -11.02243         1.28585
H          6.96717        -9.88647         1.08191
H          8.07839        -7.52191         1.54242
H          9.02329        -5.28904         2.04365
H         10.20102        -3.03690         2.20066
