         762
 CSIRO Nanostructure Databank - Neutral Graphene Oxide Data Set
C         24.50819        25.09709         3.94190
C         23.73103        25.97991         4.69620
C         23.52355        27.52569         2.82633
C         23.28329        27.20049         4.17321
C         23.25795        28.86945         2.26574
C         22.27259        29.69571         2.75199
C         23.08819        31.73146         1.59622
C         22.17480        31.08016         2.39969
C         23.06233        33.18277         1.37020
C         21.95073        33.93783         1.79841
C         22.92826        35.98511         0.93143
C         21.87301        35.30201         1.55333
C         22.78238        37.40652         0.54169
C         21.71182        38.26392         1.06578
C         22.87453        40.30634         0.33001
C         21.72511        39.60843         0.87134
C         22.83537        41.76946         0.15457
C         21.62865        42.49375         0.13662
C         22.82602        44.61957        -0.12876
C         21.63132        43.87707        -0.00345
C         22.78270        46.07406        -0.27302
C         21.60799        46.78288        -0.39082
C         22.75973        48.92106        -0.71347
C         21.60216        48.20094        -0.56496
C         25.94264        23.21190         2.08280
C         25.77476        24.59180         1.80794
C         24.78308        25.37130         2.58536
C         25.52593        27.36401         0.74552
C         24.16014        26.52250         2.05408
C         25.49957        28.77895         1.06047
C         24.16579        29.43672         1.22967
C         25.34166        31.60931         0.35553
C         24.12109        30.91925         0.92476
C         25.30293        33.11949         0.20243
C         24.13111        33.86382         0.72998
C         25.31559        35.99047         0.16067
C         24.10423        35.27294         0.56816
C         25.32576        37.39855         0.07252
C         24.04488        38.13320         0.06180
C         25.28885        40.29817        -0.36174
C         24.03876        39.60049         0.09926
C         25.30864        41.73855         0.09753
C         24.03993        42.49321         0.01104
C         25.34122        44.58761        -0.26633
C         24.06030        43.90140        -0.11669
C         25.33786        46.07363        -0.34446
C         24.05359        46.83687        -0.31246
C         25.23402        48.96235        -0.92997
C         24.04189        48.27674        -0.70358
C         25.30803        50.40546        -0.95468
C         27.92742        23.00291         0.67987
C         26.96308        22.43472         1.51718
C         27.76974        24.41349         0.33077
C         26.67675        25.20496         0.89268
C         27.90051        27.36071         0.28401
C         26.69085        26.62222         0.63462
C         27.90994        28.76710         0.28127
C         26.77794        29.54869         0.78869
C         27.80829        31.69192         0.05799
C         26.67903        30.98295         0.43269
C         27.75083        33.10521        -0.21836
C         26.57638        33.83789        -0.01144
C         27.75279        36.01315        -0.19333
C         26.54291        35.27788        -0.03627
C         27.78068        37.40235        -0.04103
C         26.55778        38.13229         0.01763
C         27.80048        40.28359        -0.20933
C         26.57453        39.55935        -0.05601
C         27.80340        41.68161        -0.37123
C         26.60544        42.47343        -0.04887
C         27.87124        44.66416        -0.28279
C         26.54575        43.93315        -0.27037
C         27.82356        46.08231        -0.80115
C         26.52776        46.72628        -0.97627
C         27.78251        48.93398        -1.29947
C         26.48663        48.22546        -1.24159
C         27.77571        50.44442        -1.51683
C         26.45582        51.08371        -1.17331
C         29.87963        20.48954        -1.34315
C         28.85096        21.02887        -0.54638
C         30.32590        22.94289        -0.07041
C         29.01404        22.27773         0.03926
C         30.34469        24.50434        -0.15665
C         29.02492        25.20466        -0.20543
C         30.21608        27.34409        -0.67747
C         29.06189        26.64756        -0.09152
C         30.33454        28.80041        -0.49082
C         29.17322        29.49222         0.08888
C         30.32542        31.68509        -0.51031
C         29.13431        31.01200         0.03575
C         30.29782        33.09410        -0.69105
C         28.98061        33.79580        -0.67228
C         30.26148        36.02184        -0.63934
C         28.97371        35.30273        -0.62931
C         30.28571        37.37276        -0.41659
C         29.09539        38.11807         0.15121
C         30.26469        40.25420        -0.43026
C         29.07008        39.57662        -0.25374
C         30.30137        41.69144        -0.70275
C         28.99640        42.37947        -0.87397
C         30.24610        44.62839        -1.17701
C         28.95766        43.88407        -1.01562
C         30.25993        46.09793        -1.02442
C         29.00479        46.79084        -1.02940
C         30.27723        48.94638        -1.32158
C         28.97029        48.23672        -1.26033
C         30.27721        50.48479        -0.98249
C         28.95304        51.09219        -0.79008
C         30.01930        52.90203         0.41796
C         28.85248        52.26078        -0.08313
C         33.21083        18.69122        -2.00086
C         33.12081        20.07309        -1.82163
C         31.11334        21.13504        -1.45895
C         32.73601        22.97587        -0.81984
C         31.45972        22.30418        -0.74346
C         32.74274        24.41375        -0.75519
C         31.53035        25.13140        -0.69265
C         32.73014        27.27454        -1.33099
C         31.44786        26.54106        -1.09863
C         32.70988        28.78773        -1.24476
C         31.48069        29.49809        -0.80443
C         32.74114        31.64298        -0.97011
C         31.51056        30.94964        -0.73473
C         32.73409        33.08277        -0.97280
C         31.48641        33.79372        -0.90667
C         32.75749        35.98109        -0.84444
C         31.46682        35.28416        -1.20360
C         32.72928        37.37925        -0.71980
C         31.52276        38.10917        -0.55034
C         32.74296        40.25568        -0.40816
C         31.53075        39.53143        -0.45011
C         32.73226        41.72518        -0.07568
C         31.47801        42.39718        -0.62675
C         32.72348        44.64141        -0.57955
C         31.52811        43.83855        -0.95690
C         32.71344        46.06328        -0.95845
C         31.50915        46.78526        -1.06638
C         32.71119        48.98840        -0.91019
C         31.53258        48.24023        -1.09186
C         32.71269        50.36281        -0.47255
C         31.47999        51.05569        -0.34283
C         32.42196        53.04019         0.89611
C         31.27717        52.33810         0.30306
C         32.86285        54.30358         0.64863
C         35.39014        18.71959        -0.95609
C         34.31832        18.00777        -1.52058
C         35.32683        20.14162        -0.85143
C         34.11856        20.84143        -1.17578
C         35.20269        22.99719        -0.67633
C         34.00952        22.28010        -0.93517
C         35.20577        24.44689        -0.68062
C         33.98804        25.15329        -0.88310
C         35.21623        27.29033        -1.10607
C         34.00069        26.56112        -1.07479
C         35.22100        28.75184        -1.14212
C         33.99761        29.48735        -1.07763
C         35.24102        31.60156        -1.16820
C         33.96199        30.89583        -1.05671
C         35.24526        33.11894        -1.06210
C         33.95455        33.81597        -0.93226
C         35.23136        35.87042        -0.50601
C         33.97249        35.22775        -0.76583
C         35.25115        37.34632        -0.57396
C         33.98772        38.13521        -0.74795
C         35.19846        40.30312        -0.43409
C         33.98456        39.59332        -0.47660
C         35.23124        41.73584        -0.55128
C         34.02830        42.42889        -0.44926
C         35.32676        44.62158        -0.57753
C         34.03168        43.89318        -0.36801
C         35.28380        46.08607        -0.87543
C         33.97902        46.76606        -1.13464
C         35.29296        48.89987        -0.57085
C         34.00091        48.27927        -1.09007
C         35.26181        50.39024        -0.87802
C         34.03924        50.95362        -0.15281
C         35.50833        52.61355         1.11117
C         34.25280        51.84429         0.84687
C         35.31055        54.11223         1.27002
C         34.15825        54.81598         1.06752
C         37.76354        15.91111        -0.17430
C         36.59680        16.59905        -0.46039
C         37.77788        18.72859        -0.26899
C         36.58931        18.00784        -0.54578
C         37.75428        20.18316        -0.31562
C         36.51682        20.87417        -0.51427
C         37.65907        23.01780        -0.24815
C         36.46388        22.30052        -0.49814
C         37.66985        24.52320        -0.07913
C         36.41589        25.18897        -0.61070
C         37.72578        27.24036        -1.13921
C         36.43218        26.55968        -0.91231
C         37.73914        28.78594        -1.20218
C         36.45314        29.46980        -1.02137
C         37.68643        31.57122        -0.56912
C         36.48224        30.86983        -0.87880
C         37.64266        32.98703        -0.31703
C         36.47351        33.73422        -0.53259
C         37.70216        35.83523        -0.14496
C         36.42875        35.15404        -0.32582
C         37.70569        37.32157        -0.05335
C         36.43672        38.08389        -0.07553
C         37.75405        40.28227        -0.52351
C         36.46356        39.58362        -0.21966
C         37.74967        41.70221        -0.94139
C         36.50076        42.43870        -0.84265
C         37.69987        44.52851        -1.46295
C         36.50296        43.82142        -0.99311
C         37.76127        46.03665        -1.53273
C         36.48905        46.81730        -1.39569
C         37.76966        48.93344        -1.11978
C         36.56612        48.25445        -1.07947
C         37.78281        50.38137        -0.82062
C         36.60408        51.01585        -0.52109
C         37.79537        53.20331         0.16386
C         36.55625        52.38230         0.03816
C         37.81848        54.33040         1.12930
C         36.57190        54.79725         1.62315
C         37.73023        56.46518         2.92170
C         36.53790        55.88488         2.51021
C         40.12371        14.63666         1.16949
C         40.22883        15.78477         0.19521
C         38.96542        16.60317         0.05316
C         40.24081        18.73362         0.23718
C         38.96927        18.00616         0.02597
C         40.25319        20.22777         0.03196
C         38.94715        20.92622        -0.15539
C         40.06072        23.18622         0.29629
C         38.87194        22.33172        -0.05699
C         40.23716        24.37748        -0.62187
C         38.93762        25.13933        -0.68274
C         40.27464        27.26064        -1.25580
C         38.98120        26.57896        -0.88068
C         40.24931        28.74241        -0.85916
C         38.99333        29.47493        -0.85298
C         40.15119        31.48399         0.00443
C         38.91546        30.81945        -0.47528
C         40.09830        32.91348         0.46186
C         38.76798        33.68770         0.45041
C         40.12571        35.97967         0.36421
C         38.87131        35.15668         0.06878
C         40.17737        37.23655        -0.49410
C         38.91628        37.99209        -0.60734
C         40.23355        40.13868        -1.24732
C         38.92865        39.45630        -0.94476
C         40.26681        41.61804        -1.05280
C         38.98460        42.32562        -1.06922
C         40.18600        44.54286        -0.96162
C         39.00562        43.75985        -1.40692
C         40.20812        46.02083        -1.09145
C         39.02933        46.76276        -1.29370
C         40.27005        48.86109        -1.00089
C         39.02962        48.19298        -1.20992
C         40.40491        50.38994        -0.98608
C         39.07159        51.14598        -0.80921
C         40.30865        53.14188         0.38649
C         39.08496        52.56095        -0.23557
C         40.33960        54.41960         0.96062
C         39.04694        54.97385         1.44375
C         40.88731        57.29538         2.08338
C         38.95059        56.01249         2.40287
C         40.92629        58.68035         2.23013
C         42.55314        14.61207         1.35570
C         41.25972        14.04937         1.62467
C         42.68121        15.87735         0.79762
C         41.47884        16.59557         0.43479
C         42.77231        18.66228         0.22005
C         41.51131        17.95739         0.22687
C         42.76746        20.05350        -0.29648
C         41.53425        20.84821        -0.37929
C         42.86698        22.85652        -0.96817
C         41.67310        22.01331        -1.14282
C         42.75932        24.31567        -0.90473
C         41.56580        25.05049        -0.80385
C         42.68460        27.22351        -0.56220
C         41.53156        26.50740        -0.80476
C         42.70528        28.67840        -0.50050
C         41.44743        29.41112        -0.64255
C         42.62438        31.53347        -0.24750
C         41.45108        30.83939        -0.34051
C         42.69038        32.86586         0.45953
C         41.39950        33.67602         0.52065
C         42.65181        35.77090        -0.29610
C         41.43070        35.16352         0.31885
C         42.50088        37.03182        -0.97939
C         41.45754        37.91528        -0.79897
C         42.84336        40.11901        -1.22856
C         41.51922        39.33197        -1.27372
C         42.78606        41.62948        -1.14457
C         41.46212        42.30305        -0.99167
C         42.71325        44.52034        -0.61670
C         41.44675        43.75782        -0.69201
C         42.66178        45.93632        -0.72477
C         41.44423        46.68366        -0.89621
C         42.74947        48.79004        -0.66032
C         41.44761        48.11219        -0.88470
C         42.79395        50.19082        -0.16009
C         41.40507        50.80518         0.12711
C         42.84684        53.03669         0.44489
C         41.50959        52.30446         0.41788
C         42.79091        54.50489         0.49202
C         41.62751        55.14143         0.97000
C         42.82802        57.33771         0.65342
C         41.74402        56.57895         1.21533
C         42.82306        58.75883         0.75341
C         41.86712        59.42391         1.49821
C         45.16533        15.89789         0.86298
C         43.96194        16.57266         0.71467
C         45.26536        18.76779         0.51793
C         43.96536        17.98866         0.41875
C         45.35244        19.98443        -0.40457
C         44.06993        20.73407        -0.64170
C         45.35195        22.90810        -0.56622
C         44.08731        22.20806        -0.72978
C         45.33406        24.32192        -0.55124
C         44.05916        25.04348        -0.84926
C         45.16030        27.17364         0.10449
C         43.99048        26.53073        -0.57626
C         45.05841        28.66794         0.42239
C         43.88995        29.34606        -0.26347
C         45.19099        31.54410        -0.00275
C         43.92278        30.81886        -0.36417
C         45.11115        33.00680         0.23535
C         43.92355        33.70360         0.12749
C         45.21393        35.83996        -0.28419
C         43.89001        35.12464        -0.17235
C         45.43874        37.35261        -0.57206
C         44.34345        38.14995        -1.08642
C         45.26500        40.23055        -0.28971
C         44.13058        39.48321        -0.80531
C         45.25876        41.64568        -0.27541
C         44.03168        42.38139        -0.72011
C         45.13595        44.56545        -0.09775
C         43.91022        43.82259        -0.40871
C         45.17837        46.01415        -0.50265
C         43.93063        46.62899        -1.01826
C         45.26911        48.86354        -1.17509
C         43.96474        48.11437        -1.19954
C         45.25213        50.35424        -0.92453
C         44.00588        51.02205        -0.43380
C         45.23010        53.16406        -0.42202
C         44.02978        52.34889        -0.12542
C         45.23175        54.57178        -0.03095
C         44.01268        55.23253         0.22141
C         45.13597        57.34355        -0.39051
C         43.98206        56.65961         0.15915
C         46.42094        16.56565         0.74747
C         47.83558        18.57758         0.42041
C         46.50816        17.91079         0.52934
C         47.91448        20.01372        -0.09989
C         46.64594        20.72702        -0.50322
C         47.80335        22.94059        -0.32053
C         46.60424        22.21844        -0.46914
C         47.77608        24.35874        -0.30737
C         46.54471        25.04323        -0.39909
C         47.71317        27.29185         0.12471
C         46.48294        26.47614         0.01938
C         47.64976        28.63420         0.43325
C         46.39843        29.39719         0.36945
C         47.66076        31.53025         0.65487
C         46.41109        30.76873         0.37686
C         47.60488        33.01220         0.75888
C         46.31068        33.73623         0.63948
C         47.63643        35.92520         0.54958
C         46.32523        35.22261         0.50949
C         47.58592        37.38345         0.71722
C         46.48208        38.11579         0.11821
C         47.67558        40.25178         0.44402
C         46.45534        39.51920         0.12850
C         47.67146        41.67548         0.32545
C         46.43137        42.34838         0.07814
C         47.72535        44.54443        -0.02987
C         46.42021        43.82206         0.14612
C         47.73266        45.89276        -0.68691
C         46.47538        46.65998        -0.88022
C         47.73168        48.82565        -0.71922
C         46.53006        48.14246        -0.94171
C         47.75086        50.28322        -0.62410
C         46.56092        50.98952        -0.64432
C         47.84783        53.18600        -0.51200
C         46.54955        52.45940        -0.69173
C         47.82326        54.65948        -0.21760
C         46.51244        55.36371         0.13970
C         46.34061        56.72754        -0.48485
C         50.10903        18.82960         1.28795
C         48.95339        18.11706         1.25149
C         50.21579        20.15237         0.71315
C         49.11464        20.79984         0.20378
C         50.23414        23.05338         0.41636
C         49.16163        22.23337        -0.29270
C         50.23325        24.41142         0.29029
C         49.10166        25.09555        -0.49727
C         50.14045        27.15995         0.66569
C         49.03887        26.67843        -0.33660
C         50.23470        28.68451         0.68925
C         48.91338        29.40927         0.65600
C         50.18878        31.53050         0.52735
C         48.97631        30.86120         0.46658
C         50.13462        33.02617         0.49543
C         48.84255        33.78249         0.44760
C         50.08702        35.98823         0.69374
C         48.82732        35.25982         0.64383
C         50.12664        37.36422         0.80880
C         48.89031        38.13655         0.94275
C         50.12809        40.28248         0.88133
C         48.89788        39.58488         0.70823
C         50.11466        41.69189         0.75185
C         48.91794        42.38340         0.43096
C         50.17827        44.49805         0.13607
C         48.99567        43.78809         0.08890
C         50.27518        45.88615        -0.35535
C         49.02709        46.64785        -0.74559
C         50.18852        48.82562        -0.44310
C         48.98195        48.12210        -0.63094
C         50.23525        50.21905        -0.27258
C         49.02062        50.98251        -0.35845
C         50.18597        53.00537         0.57366
C         49.03870        52.37196        -0.18865
C         50.16591        54.51542         0.59039
C         49.06939        55.24676         0.34963
C         52.79235        20.21875         0.66956
C         51.50087        20.87754         0.93812
C         52.77598        23.08606         0.73250
C         51.47837        22.37595         0.86524
C         52.73738        24.46428         0.67515
C         51.47961        25.13400         0.50434
C         52.61609        27.21349        -0.11930
C         51.44102        26.51049         0.36862
C         52.51665        28.67278        -0.44258
C         51.40655        29.43222         0.18345
C         52.68719        31.53076        -0.17111
C         51.45205        30.81980         0.25748
C         53.03248        32.78459         0.28295
C         51.25123        33.87015         0.92272
C         52.61964        35.88479         0.47693
C         51.31286        35.21924         0.76411
C         52.69330        37.29513         1.00845
C         51.40248        38.07404         1.05915
C         52.60204        40.22954         1.11685
C         51.39234        39.56692         1.05079
C         52.63879        41.69289         1.35302
C         51.32669        42.45330         1.12788
C         52.65038        44.70374         0.82626
C         51.35215        43.92962         0.83569
C         52.69969        46.04341         0.17473
C         51.52478        46.65611        -0.18933
C         52.75977        48.82550        -0.69932
C         51.46239        48.07741        -0.61806
C         52.85528        50.24718        -0.28399
C         51.53728        50.85483         0.20233
C         52.71659        53.03087         0.24371
C         51.51231        52.36333         0.21325
C         53.95266        20.91408         0.56151
C         55.23217        23.07112         0.55028
C         54.02582        22.36284         0.66898
C         55.33130        24.53754         0.93888
C         53.96250        25.31810         0.99482
C         55.13401        27.47626         0.23431
C         53.94302        26.54778         0.08616
C         55.06056        28.63315        -0.77408
C         53.74368        29.36725        -0.94008
C         55.01000        31.66299        -1.32478
C         53.73317        30.88343        -1.00543
C         55.08588        33.14009        -0.97471
C         54.02303        33.68831        -0.25224
C         55.08841        36.04602        -0.19239
C         53.85846        35.18804        -0.05917
C         55.11207        37.36685         0.15693
C         54.04000        38.00950         1.02875
C         55.14084        40.28296         0.71176
C         53.86998        39.51696         0.78028
C         55.27290        41.68217         1.25926
C         53.94715        42.46902         1.31947
C         55.14270        44.53304         0.38541
C         53.93969        43.95403         1.03874
C         55.25318        46.03097         0.33588
C         53.97430        46.71117        -0.05888
C         55.77320        49.05874        -0.11587
C         53.94287        47.94814        -0.63325
C         55.38970        50.32881         0.34707
C         54.05205        50.93668         0.06269
C         53.94900        52.33723         0.26015
C         57.64406        23.09579         0.06245
C         56.49309        22.41627         0.32002
C         57.67026        24.55587        -0.14682
C         56.44045        25.32095         0.21479
C         57.68189        27.47237        -0.00980
C         56.41853        26.67635         0.07310
C         57.60517        28.93954        -0.35264
C         56.30996        29.42802        -0.93436
C         57.45127        31.37417        -1.81768
C         56.25690        30.83834        -1.38034
C         57.40678        33.56376        -1.85556
C         56.24117        33.98011        -1.22124
C         57.52278        36.21120        -1.11950
C         56.21009        35.43933        -0.95100
C         57.58008        37.62711        -0.63210
C         56.31794        38.21361        -0.06653
C         57.71252        40.27530         0.60130
C         56.42738        39.50957         0.68504
C         57.67303        41.76576         0.47613
C         56.41854        42.37882         0.52178
C         58.08744        44.76412         0.18578
C         56.18964        43.71696         0.06379
C         57.89413        46.04653         0.65017
C         56.58603        46.75376         0.50444
C         57.66872        48.83258         1.37362
C         56.73519        48.24537         0.48904
C         57.44078        50.19009         1.70619
C         56.29448        50.87855         1.28969
C         60.30653        24.63509        -0.31493
C         58.98602        25.29191        -0.36370
C         60.22994        27.52960        -0.56796
C         59.00533        26.78203        -0.14329
C         60.16247        28.94492        -0.82369
C         58.87442        29.66184        -0.75093
C         59.91445        31.78334        -1.62429
C         58.76390        30.95858        -1.46538
C         59.89981        33.27213        -1.67184
C         58.72520        34.10360        -1.62147
C         60.03161        36.10634        -0.97991
C         58.79505        35.46539        -1.23153
C         60.08901        37.51783        -0.55636
C         58.89516        38.24091        -0.31435
C         60.16873        40.25511         0.28847
C         58.93979        39.57974         0.12816
C         60.15417        41.67941         0.65784
C         58.97164        42.44915         0.48234
C         60.19690        44.47933         1.32316
C         59.09781        43.87791         0.64870
C         60.11168        45.88678         1.70826
C         58.93791        46.65743         1.42027
C         59.86449        48.58482         2.57352
C         58.81693        48.02682         1.83504
C         61.44000        25.38228        -0.44605
C         61.40643        26.79896        -0.65498
C         61.25875        29.72240        -1.23416
C         61.15555        31.08997        -1.51216
C         61.11793        33.96600        -1.48132
C         61.18793        35.32277        -1.17155
C         61.31207        38.19764        -0.36036
C         61.35338        39.53409         0.02807
C         61.31011        42.31482         1.17768
C         61.31124        43.64220         1.58609
C         61.14462        46.51799         2.44142
C         61.01029        47.83092         2.87443
O         52.00945        48.47057        -1.93735
O         24.28170        26.72464         0.65788
O         43.67636        42.20019        -2.15813
O         48.00381        37.79033         2.06353
O         25.02017        32.22284        -0.93335
O         45.65560        26.47692         1.28744
O         46.08076        20.00055        -1.65319
O         45.74477        52.95835        -1.80058
O         40.67333        23.09568         1.34943
O         55.70539        46.46341         1.68311
O         54.37083        40.06891        -0.50136
O         55.09443        48.48391        -1.19523
O         53.32705        26.43088        -1.18544
O         30.42430        26.86631        -2.07743
O         39.42103        24.34319        -1.83827
O         49.53360        33.46247        -0.79830
O         40.52922        44.11097         0.40793
O         52.03225        37.48027         2.29039
O         37.76585        27.99523        -2.43081
O         39.30615        39.74092        -2.31600
O         28.62947        43.07500        -2.15746
O         58.24369        29.79657         0.61437
O         31.06027        44.15799        -2.29955
O         45.24592        49.82016        -2.29293
O         55.83656        28.46741        -1.98013
O         37.30377        40.16012         0.85554
O         53.97904        31.39511        -2.34306
O         26.07172        42.03584         1.29221
O         52.38005        33.24806         1.43364
O         47.09871        44.43484         1.29550
O         47.08355        45.92211        -2.00626
O         39.10738        52.32851        -1.68853
O         49.64608        29.15741         1.93645
O         34.08362        47.58198        -2.35553
O         51.78825        42.09683         2.46245
O         33.20607        52.19973         1.71605
O         36.99785        46.48162        -2.71340
O         58.52390        27.21107         1.16906
O         43.33933        20.04209        -1.70468
O         44.82238        31.29570        -1.43713
O         35.38564        32.45131        -2.36210
O         28.75795        34.57406        -1.90939
O         47.66872        32.21850         1.98425
O         58.16025        24.89197        -1.50814
O         26.39337        29.16251         2.17488
O         34.85549        37.82331        -1.90603
O         42.28522        52.44250         1.66358
O         23.55730        29.91153         0.00401
O         44.28471        26.02863        -1.92268
O         32.67842        28.08688        -2.53992
O         28.02883        24.65099        -1.10143
O         57.18322        44.26502        -0.76152
O         36.81859        53.44878        -0.91855
O         43.05326        49.08894         0.77231
O         56.71044        38.47343        -1.45509
O         42.29711        39.60564        -2.47460
O         31.99743        20.65526        -2.42278
O         23.05726        37.59641        -0.88604
O         40.06747        56.60452         2.97924
O         51.76677        44.73217         1.98947
O         33.23903        44.39193         0.77913
O         40.27763        19.65089         1.39937
O         48.02573        54.21095        -1.57953
O         53.81829        25.89634         2.27616
O         44.97493        45.65961         0.88735
O         57.24869        39.61859         1.86380
O         48.21366        18.86829        -0.96282
O         52.84929        35.79208        -0.97481
O         40.06100        31.83670         1.45323
O         37.04548        37.70156         1.19685
O         35.55289        45.63158         0.49301
O         30.44483        49.97147        -2.34706
O         38.36272        44.01548        -2.67608
O         24.90296        46.67395         0.92077
O         56.58286        36.10443        -2.21813
O         41.58246        34.58210         1.66366
O         54.06988        43.45210         2.40215
O         51.42376        21.67399         2.17192
O         30.62361        23.77370         1.08248
O         29.48239        30.31646         1.28568
O         45.79723        36.27975        -1.54003
O         45.99222        34.63133         1.79119
O         57.36135        32.45858        -2.69014
O         39.38424        37.15385        -1.72588
O         43.49246        37.41132        -1.89723
O         52.76255        28.85655        -1.88545
O         26.28510        47.24218        -2.32529
O         43.87648        47.24728        -2.35505
O         49.87571        46.06496        -1.78373
O         49.40173        24.82600        -1.85533
O         42.93248        32.43029         1.83329
H         42.73589        33.19593         2.41991
O         39.98858        36.50093         1.70456
H         40.02731        35.73740         2.32399
O         35.10737        50.53496        -2.29949
H         35.30809        51.46102        -2.54830
O         55.69058        41.51505         2.62840
H         55.45205        42.34268         3.10746
O         44.68189        28.75587         1.83095
H         45.13217        28.00562         2.28867
O         25.20543        40.37281        -1.82437
H         24.99014        39.47803        -2.16492
O         49.62604        22.17108        -1.66489
H         49.59578        23.11970        -2.00213
O         27.95392        50.68606        -2.93723
H         28.87100        50.39629        -3.17017
O         32.61561        41.81059         1.38480
H         32.77838        42.75594         1.62490
O         31.33330        35.38810        -2.65988
H         30.43386        35.04439        -2.88050
O         28.34217        44.69756         1.10255
H         27.60605        45.01159         1.67019
O         55.05359        28.06640         1.53901
H         54.68170        27.34912         2.14529
O         40.99540        50.74962        -2.24654
H         40.46633        51.49023        -2.62822
O         38.32379        33.71361         1.84165
H         38.63104        32.86922         2.24869
O         49.28719        27.26298        -1.60629
H         49.45223        26.48116        -2.21733
O         54.56322        37.89065         2.37419
H         53.79319        37.92427         2.98992
O         29.29370        38.12327         1.61197
H         30.07085        38.69067         1.80516
O         35.29316        48.75366         0.87184
H         35.42270        47.80615         1.09891
O         49.93359        52.63800         1.97802
H         50.25929        51.71096         2.10696
O         46.64557        55.58236         1.58942
H         45.86355        56.09462         1.88781
O         40.36266        27.23289        -2.71620
H         39.48944        27.54287        -3.06208
O         36.10105        52.10644         2.34069
H         35.38859        52.05811         3.01309
O         45.22994        19.40936         1.85005
H         45.05660        18.71055         2.51670
O         40.41228        15.16048        -1.12790
H         41.24109        14.63689        -1.08813
O         51.54218        50.46588         1.66180
H         52.35855        50.84908         2.05409
O         55.82214        24.46955         2.29801
H         55.16269        25.01514         2.82422
O         37.68526        24.81717         1.34996
H         38.28291        24.17795         1.79521
O         49.69662        26.66732         1.94714
H         49.54474        27.45249         2.52774
O         40.73875        22.32270        -2.06609
H         40.99212        23.11713        -2.57974
O         40.86414        50.21984         1.32101
H         41.49846        50.39318         2.05074
H         24.94218        24.20990         4.42386
H         23.53408        25.74870         5.75197
H         22.77539        27.91976         4.83082
H         21.55400        29.30825         3.48869
H         21.36830        31.64843         2.88303
H         21.09976        33.44375         2.28399
H         20.96055        35.84134         1.84019
H         20.88094        37.80838         1.62266
H         20.87967        40.20520         1.24143
H         20.66693        41.97184         0.23190
H         20.66387        44.39623        -0.00483
H         20.63636        46.27165        -0.36608
H         22.69606        49.99983        -0.90909
H         20.63265        48.71456        -0.62218
H         25.24083        22.72500         2.77463
H         24.39074        50.97858        -0.75723
H         27.02673        21.36703         1.77061
H         26.41264        52.18130        -1.22367
H         29.69436        19.58706        -1.93906
H         27.88302        20.51338        -0.48179
H         29.91224        53.86291         0.93987
H         27.87997        52.74449         0.07838
H         32.40316        18.16414        -2.52385
H         32.22390        54.98450         0.06793
H         34.36939        16.92050        -1.65247
H         34.23039        55.91529         1.11696
H         37.75505        14.81302        -0.15332
H         35.67711        16.02516        -0.63077
H         37.73736        57.27385         3.66347
H         35.57951        56.23881         2.91347
H         39.13998        14.20054         1.39486
H         40.23847        59.17180         2.92955
H         43.43770        14.07248         1.72052
H         41.20618        13.14528         2.24870
H         43.62259        59.33452         0.26980
H         41.88775        60.51895         1.57812
H         45.17291        14.81272         1.03157
H         45.02087        58.37165        -0.76246
H         47.33715        15.96098         0.81042
H         47.21061        57.24485        -0.91328
H         50.96395        18.45524         1.86948
H         48.84564        17.19646         1.84290
H         51.05418        55.01756         1.00205
H         49.08880        56.33603         0.50818
H         52.79463        19.13031         0.50829
H         52.74241        54.12701         0.32120
H         54.87675        20.35365         0.36361
H         54.86538        52.92323         0.41012
H         58.56667        22.53080        -0.13340
H         56.53774        21.31768         0.33932
H         58.12408        50.70052         2.39951
H         56.10505        51.87446         1.71548
H         60.37031        23.54062        -0.24015
H         59.81000        49.62921         2.91079
H         62.42026        24.88496        -0.44850
H         62.35363        27.30243        -0.89373
H         62.25628        29.26454        -1.29304
H         62.09613        31.61640        -1.71865
H         62.07289        33.42914        -1.54287
H         62.18253        35.76847        -1.03573
H         62.26252        37.67703        -0.54005
H         62.33046        40.02649         0.13016
H         62.21480        41.71376         1.34655
H         62.20582        44.04505         2.08045
H         62.06070        45.96459         2.68939
H         61.82049        48.29466         3.45404
