         261
 CSIRO Nanostructure Databank - Neutral Graphene Oxide Data Set
C        -11.06966         0.64930        -0.94944
C         -9.91553         1.55331        -0.67069
C         -8.60341         0.80650        -0.45889
C         -7.32056         1.39518        -0.96883
C         -6.04561         0.63995        -0.78131
C         -4.83753         1.40002        -0.31559
C         -3.50067         0.69521        -0.25461
C         -2.38525         1.45869         0.47821
C         -1.05995         0.68806         0.37114
C          0.22527         1.44202         0.41851
C          1.51063         0.76994         0.83650
C          2.76003         1.53316         0.44853
C          3.84306         0.82577        -0.30531
C          4.78114         1.60698        -1.20186
C          6.06064         0.85709        -1.51582
C          7.35863         1.59072        -1.51095
C          8.63326         0.85414        -1.17368
C          9.63246         1.54277        -0.27732
C         10.77674         0.71236         0.22479
C         -9.97878         2.95869        -1.21476
C         -9.22593         3.99573        -0.83072
C         -7.13612         2.88353        -1.28080
C         -6.16643         3.67547        -0.43747
C         -4.90780         2.88490        -0.13671
C         -3.61262         3.63770        -0.21603
C         -2.32794         2.90313        -0.02811
C         -1.07307         3.69775         0.22718
C          0.20375         2.95018         0.40104
C          1.42546         3.65265         0.90162
C          2.72727         3.01397         0.48143
C          3.49337         3.81582        -0.55194
C          4.75269         3.11755        -1.15516
C          6.05031         3.89522        -1.37985
C          7.33167         3.10696        -1.69191
C          8.77230         3.92979         0.14229
C          9.15286         2.71809         0.53733
C         -8.70513         5.16909        -0.48929
C         -7.43057         5.89505        -1.03367
C         -6.16725         5.16534        -0.52175
C         -4.80347         5.82905        -0.80367
C         -3.70387         5.12508         0.00772
C         -2.47873         5.83930         0.47344
C         -1.19972         5.10407         0.75772
C          0.04256         5.86514         1.11853
C          1.36876         5.12921         1.05010
C          2.64360         5.88715         0.81141
C          3.69291         5.27162        -0.09333
C          4.93184         6.04605        -0.42297
C          6.17651         5.36186        -0.98091
C          7.56716         6.07250        -0.74421
C          8.63752         5.24022        -0.00020
C         -7.34242         7.32665        -0.51610
C         -6.18156         8.01008        -0.33739
C         -4.81515         7.41779        -0.70636
C         -3.71999         7.98745         0.26160
C         -2.38137         7.31137         0.23427
C         -1.16250         8.08001         0.64418
C          0.05131         7.39445         1.27631
C          1.30507         8.10921         0.62054
C          2.63334         7.36488         0.95468
C          3.88726         8.16539         0.67472
C          4.98877         7.52330        -0.11188
C          6.33695         8.31908        -0.16170
C          7.44749         7.42570        -0.05483
C         -6.15359         9.44525        -0.03571
C         -5.03460        10.13216         0.30153
C         -3.76941         9.43017         0.62677
C         -2.48829        10.14874         0.89727
C         -1.27435         9.54158         0.92650
C          0.00499        10.29366         1.31941
C          1.33563         9.59050         1.01503
C          2.50478        10.27845         1.03950
C          3.84947         9.64493         0.85602
C          5.09738        10.38550         0.50091
C          6.26748         9.74996         0.25565
C        -11.04304        -0.70428        -0.89106
C         -9.90041        -1.47793        -0.34163
C         -8.62908        -0.67904        -0.13106
C         -7.34255        -1.45485        -0.01628
C         -6.06565        -0.83075        -0.48598
C         -4.77942        -1.56979        -0.31668
C         -3.47936        -0.80482        -0.22627
C         -2.33806        -1.51706         0.45745
C         -1.10279        -0.75309         0.81643
C          0.20413        -1.49254         1.05645
C          1.51815        -0.72775         0.93772
C          2.72396        -1.46726         0.38102
C          3.79799        -0.66643        -0.33362
C          4.73823        -1.38935        -1.24722
C          6.00594        -0.66048        -1.57103
C          7.30750        -1.41552        -1.42894
C          8.58426        -0.66962        -1.15245
C          9.49336        -1.36574        -0.10558
C         10.79659        -0.62432         0.09893
C         -9.81108        -2.97143        -0.41913
C         -8.66923        -3.67123        -0.17676
C         -7.38267        -2.95434         0.02346
C         -6.09480        -3.69240        -0.23722
C         -4.85714        -2.96993         0.23574
C         -3.59383        -3.72649         0.43848
C         -2.28084        -3.01189         0.30363
C         -1.03146        -3.75415         0.62612
C          0.20631        -2.99216         1.03601
C          1.47891        -3.73415         0.73028
C          2.60868        -2.94442         0.10528
C          3.47581        -3.63964        -0.90753
C          4.72965        -2.90137        -1.25486
C          6.01671        -3.62505        -1.17681
C          7.17083        -2.76395        -0.67341
C          8.46081        -3.55589        -0.64700
C          9.59063        -2.86526        -0.38150
C         -8.59009        -5.17841         0.06809
C         -7.43759        -5.87784        -0.76542
C         -6.07821        -5.16611        -0.47835
C         -4.84607        -5.94379        -0.02314
C         -3.57936        -5.22250         0.34182
C         -2.46581        -5.88201         1.11904
C         -1.13541        -5.17496         1.13626
C          0.18341        -5.96549         1.35745
C          1.42323        -5.23462         0.68478
C          2.31972        -5.91184        -0.33679
C          3.49239        -5.14056        -0.96274
C          4.81522        -5.87999        -1.22910
C          6.14140        -5.12399        -1.03460
C          7.12530        -5.70052        -0.05184
C          8.27085        -5.03919        -0.84237
C         -7.32679        -7.36472        -0.60419
C         -6.34485        -8.04567         0.20975
C         -5.05255        -7.28600         0.60362
C         -3.85395        -8.07382         1.08760
C         -2.50935        -7.38712         1.27316
C         -1.22649        -8.18244         1.17578
C          0.09279        -7.46429         0.99652
C          1.18338        -8.16515         0.25882
C          2.25902        -7.39541        -0.47114
C          3.52980        -8.13955        -0.79807
C          4.83010        -7.35903        -0.93791
C          6.14554        -8.00943        -0.47118
C          7.10526        -7.03215         0.22963
C         -6.20109        -9.51785         0.10211
C         -5.07248       -10.20007         0.39073
C         -3.88182        -9.58089         1.02324
C         -2.57511       -10.38255         1.15028
C         -1.30508        -9.61576         0.76328
C         -0.27120       -10.25137         0.17186
C          0.99243        -9.59043        -0.33391
C          2.29628       -10.22349         0.09923
C          3.54542        -9.60467        -0.32703
C          4.83302       -10.05710         0.25548
C          5.94472        -9.30525         0.27974
O         -7.23724        -2.16589         1.25250
O          4.29013         2.35722        -2.32211
O         -9.24852         1.52850         0.62401
O          1.65390         0.12076         2.12090
O          2.94793         6.53416         2.09864
O         -1.42029        -3.51801        -0.76263
O         -4.20861        -8.86956         2.25112
O          1.48057         4.22522         2.21794
O          0.15192        -2.28357         2.29048
O          4.86897        -6.83403        -2.30989
O          4.62107         0.05023         0.66022
O         -0.28312         0.86394        -0.83617
O         -5.82361        -4.23296        -1.56759
O          7.34400        -5.28213        -2.01362
O          4.27315         8.73779         1.96477
O         -5.10730         2.00413         1.00079
O         -2.02313        -5.18970         2.30236
O          1.19866        -8.16148         1.69108
O          6.69850         1.22424        -2.77957
O         -5.43420        -1.53726        -1.61054
O          8.19593         3.64488        -2.36196
O         -1.41060         7.71779        -0.75580
O          3.49798        -9.20743        -1.76974
O         -3.56599         5.49722         1.39847
O          2.89977        -4.32370        -2.03642
O          1.60510        -6.54513        -1.45609
O         -0.79642         5.25380         2.15159
O          5.42270         8.15304        -1.31187
O         -4.51551         7.94099        -1.94631
O         -2.11285        -1.04710         1.82604
O          6.74826        -2.48372         0.64808
O          3.39287        -2.42533         1.23445
O         -7.34687         3.24967        -2.43143
O         -2.83609         3.16866        -1.36012
O          1.20848         7.99997        -0.74207
O          8.35622        -1.34232        -2.42275
O          3.39160         2.31088         1.53958
O         -6.48346         4.49789         0.73081
O         -0.15441         3.53737        -0.89094
O         -3.73855        -5.84832        -0.96855
O          2.10942        -4.55229         1.76471
O         -6.14761        -7.36145         1.51899
O         -3.10544        -0.05854        -1.42001
O          5.94204         4.98254        -2.34887
O         -6.64313         0.77636        -2.11120
O         -4.09067         8.31866         1.60448
O          3.79840         6.01754        -1.35392
O          4.98392        -0.92785        -2.59868
O         -1.84268        -7.87670         2.45919
O         -9.50134        -0.97592         0.98113
O          9.76697         1.59426        -1.72623
O         -4.38029        -3.21972         1.57311
O          5.42037        -3.35021        -2.45855
O          6.89938        -8.37004        -1.64911
H          6.74467        -7.66153        -2.31821
O          2.51450         3.89134        -1.60101
H          2.85678         4.48729        -2.30549
O         -8.28523        -5.37717         1.44021
H         -8.76428        -4.72086         1.98672
O         -7.80179        -5.66878        -2.14220
H         -7.16548        -5.02032        -2.52958
O         -4.53546         5.49574        -2.16655
H         -4.45480         6.37288        -2.64361
O          8.85775        -1.15730         1.18339
H          8.01957        -1.71465         1.24372
O         -2.68134         1.57857         1.87461
H         -2.72944         0.68092         2.28194
O         -2.70755       -11.57050         0.38102
H         -2.11774       -12.25907         0.74646
O          0.84533        -9.49718        -1.74929
H          1.73975        -9.38247        -2.15865
O         -7.45712         5.95958        -2.45312
H         -7.38822         5.04026        -2.80877
O          8.12094         6.35132        -2.03629
H          8.12494         5.49320        -2.53808
O          0.40331        -5.98863         2.76143
H          0.73426        -5.11153         3.05568
O          0.07475         7.69192         2.67509
H         -0.21866         6.89097         3.16799
O         -0.04097        10.53582         2.73391
H         -0.01632         9.65732         3.17857
H         11.69936        -1.19613         0.36210
H         11.69176         1.25982         0.50003
H          8.94145         2.44491         1.59079
H          9.54713         5.84010         0.20379
H          8.28406         7.73190         0.59366
H          7.19478        10.33513         0.16483
H          5.10232        11.47560         0.65329
H          2.49244        11.36071         1.24913
H          0.00087        11.29741         0.82072
H         -2.55394        11.23225         1.08656
H         -5.07774        11.22249         0.44191
H         -7.10010         9.99495        -0.15835
H         -8.29223         7.85129        -0.31695
H         -9.21830         5.70590         0.33276
H        -10.73980         3.13952        -1.99695
H        -11.97064         1.12883        -1.36338
H        -11.92812        -1.26898        -1.22255
H        -10.75121        -3.52110        -0.59164
H         -9.56777        -5.66488        -0.20712
H         -7.93692        -7.97031        -1.29181
H         -7.04133       -10.05276        -0.36643
H         -5.02281       -11.27835         0.18085
H         -2.46971       -10.65944         2.23679
H         -0.40441       -11.30371        -0.12564
H          2.31119       -10.81113         1.03042
H          4.81885       -11.02075         0.78712
H          6.84129        -9.70631         0.77658
H          8.03695        -7.50019         0.58935
H          9.21598        -5.62025        -0.93091
H         10.56909        -3.36588        -0.29765
