         349
 CSIRO Nanostructure Databank - Neutral Graphene Oxide Data Set
C          1.50865         3.25975         0.23420
C          0.34047         3.91297        -0.14180
C          1.40083         6.09958         0.19273
C          0.28120         5.30771        -0.17335
C          1.33083         7.55589         0.19772
C          0.23684         8.23644        -0.30557
C          1.23090        10.43454         0.14454
C          0.14326         9.64300        -0.25131
C          1.09815        11.91054         0.21924
C          0.02133        12.64187        -0.42310
C          1.15914        14.79635        -0.12474
C          0.00861        14.01705        -0.43678
C          1.11168        16.28455        -0.13620
C         -0.10404        17.06029        -0.41076
C          1.13060        19.20137        -0.47560
C         -0.06598        18.43680        -0.48440
C          1.14950        20.63503        -0.50998
C         -0.04701        21.37595        -0.68613
C          1.14483        23.49581        -0.66827
C         -0.03651        22.76377        -0.80578
C          1.21237        24.98783        -0.95200
C         -0.09723        25.75655        -0.90464
C          1.16560        27.84634        -0.72883
C         -0.09302        27.10262        -0.81935
C          1.20896        29.29083        -0.84678
C          3.88133         3.36213         0.91238
C          2.66039         4.01423         0.58225
C          3.77134         6.20373         1.11044
C          2.59256         5.43782         0.55968
C          3.76760         7.66762         0.74651
C          2.42872         8.35473         0.87608
C          3.68589        10.54413         0.60136
C          2.45352         9.81802         0.50578
C          3.68947        11.99751         0.49268
C          2.41539        12.73241         0.46721
C          3.64516        14.82028        -0.07618
C          2.39195        14.15408         0.10003
C          3.69821        16.26735        -0.51427
C          2.41074        17.03031        -0.27001
C          3.65828        19.20183        -0.16571
C          2.43420        18.48558        -0.71212
C          3.62614        20.65574        -0.10504
C          2.38144        21.35956        -0.35776
C          3.55435        23.52613        -0.10161
C          2.36324        22.79423        -0.38406
C          3.56895        24.96157        -0.07996
C          2.23322        25.68162        -0.04055
C          3.60576        27.82441        -0.48607
C          2.31238        27.14860        -0.43167
C          3.66805        29.33459        -0.65496
C          2.36349        30.00519        -0.73041
C          6.34783         3.41085         1.06263
C          5.10511         4.07776         1.00104
C          6.27180         6.22463         0.74110
C          5.08374         5.50435         0.87563
C          6.22205         7.65342         0.23690
C          4.93058         8.38188         0.58187
C          6.18766        10.54171         0.68426
C          4.90613         9.82262         0.58711
C          6.16695        12.05517         0.58051
C          4.86971        12.72960         0.35528
C          6.14217        14.84295        -0.30534
C          4.84566        14.13634         0.05789
C          6.12422        16.33000        -0.00218
C          4.80689        16.98731         0.28089
C          6.06459        19.16990         0.38494
C          4.81282        18.49327         0.10418
C          5.99924        20.62398         0.68032
C          4.76429        21.34605         0.31249
C          6.05754        23.57964         0.51638
C          4.73982        22.81151         0.40200
C          6.06902        24.94789        -0.14952
C          4.75527        25.65736         0.02628
C          6.02118        27.88899         0.36815
C          4.75678        27.13089         0.15493
C          6.08560        29.34693         0.03614
C          4.91298        30.03112        -0.27861
C          8.80814         3.44663         0.93328
C          7.55695         4.13527         1.02290
C          8.75643         6.33439         0.93638
C          7.51041         5.55695         0.87806
C          8.70867         7.77614         0.62590
C          7.50186         8.42942         0.46330
C          8.65169        10.60383         0.24526
C          7.46989         9.86054         0.42461
C          8.61470        12.05269         0.13685
C          7.42251        12.74046         0.24628
C          8.62271        14.94394        -0.06090
C          7.36878        14.23109         0.38226
C          8.56457        16.32621        -0.13763
C          7.29640        17.03608         0.06040
C          8.56324        19.17444         0.45704
C          7.26516        18.47700         0.30916
C          8.60606        20.66054         0.72353
C          7.31245        21.40355         0.85759
C          8.53958        23.51398         0.36587
C          7.34509        22.84894         0.54460
C          8.55315        24.97708         0.12649
C          7.28827        25.75792         0.23627
C          8.53838        27.87503         0.65284
C          7.28436        27.10691         0.41446
C          8.56676        29.34473         0.38857
C          7.33631        30.00810         0.10853
C         11.19511         3.42161         0.35415
C         10.01132         4.10887         0.67904
C         11.26424         6.28510         0.25726
C         10.08805         5.58049         0.81847
C         11.30363         7.76429         0.32570
C          9.96521         8.53541         0.58893
C         11.09531        10.61631        -0.20535
C          9.91744         9.93798         0.17331
C         11.02578        12.04488        -0.38132
C          9.85573        12.76021        -0.12966
C         11.07415        14.90338        -0.28532
C          9.84999        14.21241        -0.19659
C         11.10371        16.36025        -0.46931
C          9.76823        17.09386        -0.46146
C         11.08184        19.27336        -0.02915
C          9.77222        18.56899        -0.19870
C         11.08191        20.69615         0.40729
C          9.83925        21.42040         0.41606
C         11.06173        23.55354         0.49187
C          9.82925        22.83116         0.41757
C         11.10682        24.96411         0.54639
C          9.85016        25.69371         0.25570
C         11.08401        27.87671         0.17893
C          9.83229        27.14346         0.59636
C         11.08723        29.32244         0.71894
C          9.78260        30.00780         0.37367
C         13.57417         3.43258        -0.17247
C         12.36046         4.11409        -0.04666
C         13.44892         6.23124        -0.95060
C         12.32011         5.56058        -0.24101
C         13.47705         7.74220        -0.98788
C         12.36955         8.50801        -0.35091
C         13.46205        10.55596        -1.22783
C         12.31513         9.88447        -0.49515
C         13.53284        12.07152        -1.04563
C         12.25390        12.79312        -0.71867
C         13.53899        14.89225        -0.30510
C         12.31085        14.21328        -0.34074
C         13.54261        16.31895        -0.07844
C         12.35576        17.07290        -0.16713
C         13.50313        19.14258         0.46078
C         12.35270        18.50114         0.03922
C         13.50702        20.58141         0.80117
C         12.28063        21.35464         0.53803
C         13.59930        23.50895         0.82781
C         12.36371        22.82839         0.29676
C         13.56587        24.97822         1.17841
C         12.29531        25.69247         0.74423
C         13.52415        27.83831         0.59734
C         12.34086        27.11815         0.58313
C         13.51899        29.24044         0.18213
C         12.33183        29.97465         0.18314
C         15.97314         3.41165        -0.52280
C         14.77515         4.06869        -0.59437
C         16.00566         6.20843        -1.07347
C         14.71329         5.41913        -1.28600
C         16.00492         7.67847        -1.36658
C         14.76703         8.47843        -1.17424
C         16.02177        10.65543        -1.26772
C         14.77653         9.84751        -1.09085
C         16.03535        12.08636        -0.82220
C         14.80373        12.77039        -0.71645
C         16.01276        14.85862        -0.21244
C         14.78293        14.16107        -0.40374
C         15.99231        16.27397         0.05619
C         14.79634        16.97420         0.16040
C         16.04329        19.16093         0.77494
C         14.75615        18.38586         0.61813
C         16.07819        20.64085         0.80353
C         14.80069        21.35077         0.97071
C         16.07760        23.52569         0.86409
C         14.79300        22.83466         0.86509
C         16.09937        24.94546         0.76537
C         14.78598        25.68635         0.55287
C         16.05326        27.82297         0.38215
C         14.83205        27.17999         0.97749
C         15.97835        29.09132        -0.24821
C         14.73304        29.79908        -0.28208
C         18.45912         3.38154        -0.60338
C         17.20142         4.01178        -1.14718
C         18.53497         6.17870        -0.98619
C         17.17465         5.52707        -1.02130
C         18.51432         7.69481        -0.90223
C         17.32981         8.41291        -1.43106
C         18.61762        10.63089        -1.11411
C         17.32541         9.92523        -1.43889
C         18.59570        12.16137        -0.98881
C         17.25206        12.77884        -0.63292
C         18.51020        14.86471        -0.06219
C         17.25318        14.16296        -0.31584
C         18.54130        16.26376         0.15317
C         17.27555        17.01910         0.02947
C         18.54114        19.19094         0.64985
C         17.29017        18.48363         0.32101
C         18.52771        20.55370         0.78607
C         17.27937        21.32148         0.80344
C         18.52618        23.48967         0.79326
C         17.30009        22.78861         0.86036
C         18.53986        24.90072         0.58004
C         17.30994        25.62779         0.61455
C         18.57544        27.76276         0.02057
C         17.36345        27.14502         0.71648
C         18.43340        29.07991        -0.74502
C         17.11127        29.68416        -0.85061
C         19.42691         4.07487         0.00448
C         20.65568         6.25366         0.33701
C         19.31890         5.56969         0.18812
C         20.76459         7.56506         0.05635
C         19.62102         8.33990        -0.43375
C         20.74262        10.51364         0.28954
C         19.75243         9.82108        -0.54530
C         20.70753        11.87645         0.45007
C         19.69719        12.69982        -0.09543
C         20.90085        14.79534         0.48828
C         19.71579        14.11562         0.10687
C         20.90720        16.16613         0.67727
C         19.73472        16.92868         0.50494
C         20.98759        19.15616         0.35263
C         19.80041        18.39486         0.90521
C         21.01566        20.49477         0.44487
C         19.83027        21.25589         0.93232
C         21.04007        23.51093         0.59000
C         19.81871        22.77384         0.92827
C         20.99036        24.81893         0.21547
C         19.76299        25.55748         0.19679
C         20.77194        27.44488        -1.06010
C         19.74160        26.90937        -0.29002
C         20.63355        28.67650        -1.76045
C         19.48706        29.42017        -1.70050
O         12.99827         6.96110        -2.14574
O         19.72495        10.23342        -1.98515
O         16.72118         7.88791        -2.64839
O          3.92131        28.39716        -1.79532
O         16.63935        10.47818        -2.60006
O         10.94417         8.27703         1.64168
O         18.95020        29.01123         0.67479
O         14.04323        20.88373         2.14945
O          5.10287        27.61894         1.50544
O         17.27278        18.02225        -1.08104
O          1.48353        12.40375         1.53561
O          9.25667        27.46456         1.89558
O         12.75418        12.70389        -2.11161
O          9.32279        25.38955        -1.08719
O          8.83638        19.68089         1.80298
O         19.97762        21.98083         2.18921
O          9.59494         6.03928         2.10915
O          5.23522        23.42095         1.68326
O         13.07692        10.44729        -2.74714
O          6.52358        21.01133         2.00583
O          1.86075        16.84771         1.04132
O         10.41610        16.75524        -1.71775
O          6.24169        11.39065         1.90295
O         10.34302        19.28586        -1.33074
O         15.41371        18.54670         1.94240
O          6.32481        14.68624        -1.73410
H          5.58236        15.17307        -2.16959
O         12.60268        22.92262        -1.19198
H         11.79444        22.58471        -1.63847
O         18.54067         5.83860         1.39040
H         19.01057         5.43687         2.15044
O         13.61858        25.01586         2.62116
H         13.94699        25.91255         2.89133
O         19.23200         5.83183        -2.20085
H         18.67115         6.10532        -2.95726
O          6.17827         7.51479        -1.23115
H          5.36364         7.01926        -1.46157
O         17.58992        27.38794         2.16117
H         18.04133        28.26615         2.21128
O          2.06568         8.34452         2.33260
H          2.51324         9.11445         2.74725
O          3.60351         6.15737         2.57296
H          2.87870         6.80162         2.78765
O          7.25120        14.48674         1.81634
H          6.78577        13.73020         2.23482
O          4.03808        16.26780        -1.92124
H          3.70652        17.11079        -2.32291
O          4.51550        16.74004         1.68272
H          5.21754        17.16129         2.22202
O          1.73252        25.58906         1.31356
H          2.43094        25.90482         1.92472
O         19.97588        18.36354         2.35897
H         20.01853        19.29129         2.67781
O          2.60637        18.48958        -2.18373
H          2.61604        19.42637        -2.47684
O         11.04660        27.96923        -1.26599
H         10.92519        27.06579        -1.63039
O         14.66292         5.10860        -2.70664
H         14.22159         5.87723        -3.14388
O          6.22946        24.63744        -1.57193
H          6.32507        25.47886        -2.06634
O         17.13426         3.70505        -2.57007
H         16.29016         4.09851        -2.90496
O         14.94029        27.27756         2.43062
H         15.90985        27.27366         2.65677
O         14.57872        25.69811        -0.88208
H         14.29590        24.79839        -1.15935
O         18.89091        12.68223        -2.31980
H         19.49672        12.03180        -2.74441
O         13.64772         9.29761        -3.35350
H         14.53624         9.60824        -3.66443
O         11.21285        29.29450         2.16530
H         10.46796        28.74294         2.50982
O          1.73433        25.10193        -2.30709
H          1.04384        24.79062        -2.92813
H          1.55343         2.16185         0.25716
H         -0.54955         3.32879        -0.41441
H         -0.66362         5.78676        -0.46159
H         -0.60034         7.68714        -0.75793
H         -0.79144        10.11829        -0.57671
H         -0.79067        12.09062        -0.91746
H         -0.87916        14.53037        -0.83378
H         -1.07418        16.54768        -0.46989
H         -1.02934        18.96363        -0.54622
H         -1.00595        20.85235        -0.78983
H         -0.98817        23.27666        -1.00193
H         -1.05300        25.22584        -1.02683
H         -1.03623        27.66876        -0.85426
H          0.25096        29.82372        -0.94299
H          3.89994         2.26333         0.96835
H          2.33214        31.10373        -0.67943
H          6.37442         2.31278         1.11418
H          4.94891        31.12548        -0.39470
H          8.79445         2.34671         0.91232
H          7.36939        31.08440        -0.11872
H         11.21500         2.32299         0.39875
H          9.78944        31.09478         0.19569
H         13.61801         2.37078         0.11278
H         12.32500        31.01972        -0.16225
H         16.01756         2.39758        -0.09639
H         14.73056        30.82785        -0.67259
H         18.55327         2.29210        -0.73244
H         16.99296        30.60828        -1.43348
H         20.32218         3.56208         0.39222
H         21.51693         5.68545         0.72075
H         21.72946         8.07535         0.18328
H         21.50456         9.92975         0.82105
H         21.47098        12.33916         1.09209
H         21.83760        14.23545         0.61089
H         21.83648        16.66490         0.98547
H         21.85957        18.60754        -0.03380
H         21.90905        21.05065         0.12435
H         22.00949        23.00485         0.69031
H         21.92834        25.33791        -0.02374
H         21.67151        26.84758        -1.26114
H         21.43891        28.97374        -2.44714
H         19.33515        30.27656        -2.37282
