         762
 CSIRO Nanostructure Databank - Neutral Graphene Oxide Data Set
C         23.49269        24.60736         2.97973
C         22.30992        25.31659         3.15484
C         23.40824        27.39947         2.53510
C         22.26721        26.69988         2.94695
C         23.37713        28.86110         2.39817
C         22.50625        29.60614         3.20190
C         22.92695        31.95469         2.46684
C         22.48852        31.01875         3.38681
C         23.16515        33.37081         2.72123
C         22.69578        34.01546         3.89066
C         23.77945        36.11776         3.23690
C         22.94114        35.36363         4.09654
C         23.87414        37.56251         3.36279
C         23.08495        38.30767         4.22428
C         24.11705        40.46372         3.65369
C         23.17575        39.72165         4.34693
C         24.26068        41.90723         3.71774
C         23.28764        42.67846         4.39053
C         24.31327        44.75631         3.63419
C         23.28996        44.05973         4.32208
C         24.24973        46.21298         3.47326
C         23.08109        46.90732         3.70138
C         23.90970        48.94826         2.65804
C         22.89148        48.24973         3.21077
C         25.97174        23.15028         2.48931
C         25.92445        24.55597         2.36631
C         24.66871        25.26238         2.55492
C         25.79024        27.31260         1.80937
C         24.61880        26.66386         2.30023
C         25.64925        28.68648         1.32032
C         24.43731        29.47875         1.64225
C         25.59451        31.58257         1.02304
C         24.40129        30.81229         1.24637
C         25.59859        32.95848         0.84735
C         23.97301        34.15174         1.85250
C         25.55130        36.08760         1.39662
C         24.41925        35.44960         2.14975
C         25.86056        37.49072         1.77074
C         24.80691        38.26739         2.46614
C         26.27056        40.39222         2.36222
C         24.96098        39.75621         2.67293
C         26.35758        41.86576         2.35043
C         25.32892        42.59652         3.04081
C         26.62373        44.75267         2.65233
C         25.35517        44.01815         3.04015
C         26.36386        46.18712         2.21733
C         25.33997        46.89342         2.77854
C         26.32529        49.06609         1.86609
C         25.31432        48.41202         2.78366
C         26.31006        50.50788         1.76986
C         28.37288        23.14089         2.11260
C         27.16609        22.46303         2.34134
C         28.38329        24.56066         1.98769
C         27.12482        25.26305         2.06808
C         28.25885        27.40250         1.48278
C         27.04958        26.66986         1.77014
C         28.23911        28.76032         1.14041
C         26.92342        29.41753         0.96815
C         28.12168        31.66054         0.75245
C         26.88290        30.89191         1.12637
C         27.99512        33.09826         0.52610
C         26.79057        33.75838         0.75286
C         28.04980        35.94490         0.74771
C         26.70248        35.25994         0.74245
C         28.10758        37.41410         0.79830
C         27.03454        38.13514         1.33574
C         28.30145        40.30762         0.85293
C         27.29540        39.57407         1.65976
C         28.28272        41.74001         0.80876
C         27.41449        42.48445         1.64442
C         28.46655        44.63921         0.71873
C         27.59843        43.96059         1.75310
C         28.15799        46.05239         0.34658
C         27.17488        46.84203         1.15634
C         28.35440        49.00475         0.46189
C         27.23812        48.32720         1.15542
C         28.33309        50.52489         0.38302
C         27.18315        51.20010         0.99159
C         30.68263        20.25433         1.35114
C         29.61576        20.94169         1.79324
C         30.94310        23.13652         1.89264
C         29.64769        22.38366         2.12591
C         30.85485        24.58656         1.54802
C         29.60970        25.26513         1.75073
C         30.82761        27.53467         1.33159
C         29.56552        26.74557         1.67857
C         30.68580        28.88304         0.70722
C         29.41247        29.48818         0.76761
C         30.38828        31.53868        -0.51235
C         29.24465        30.84801         0.18912
C         30.28187        33.03741        -0.74479
C         29.13453        33.78804        -0.12281
C         30.61534        35.87261         0.10211
C         29.29265        35.19742         0.33977
C         30.64736        37.36821         0.20959
C         29.38876        38.11223         0.55991
C         30.42705        40.19695        -0.44386
C         29.30627        39.55974         0.26366
C         30.33231        41.66236        -0.73476
C         29.03115        42.39438        -0.34231
C         30.15058        44.51451        -1.26166
C         29.24875        43.86603        -0.23896
C         30.33370        46.01008        -1.04795
C         29.14010        46.74747        -0.56527
C         30.39702        48.90499        -1.07256
C         29.19037        48.24679        -0.52920
C         30.25052        50.36048        -1.30680
C         29.14206        51.16932        -0.71236
C         30.26021        53.25851        -1.45884
C         29.23226        52.65260        -0.84007
C         32.86927        18.86778        -0.06289
C         33.06669        20.16740         0.40734
C         32.03216        20.84855         1.23932
C         33.33890        23.05148         0.93362
C         32.16511        22.32889         1.51849
C         33.25252        24.54252         0.74700
C         31.97681        25.25275         1.04233
C         33.23943        27.45388         0.45429
C         32.06321        26.73273         1.04838
C         33.18272        28.98878         0.33887
C         31.79344        29.55867         0.12232
C         32.88130        31.61371        -0.75090
C         31.72146        30.88870        -0.39811
C         32.79551        32.98724        -1.32234
C         31.50785        33.82641        -1.27623
C         32.91445        35.95876        -1.04268
C         31.74712        35.15630        -0.55517
C         32.92731        37.36159        -0.93000
C         31.75877        38.09480        -0.46556
C         32.92470        40.24117        -0.81472
C         31.70707        39.46265        -0.55189
C         32.86558        41.75287        -1.02502
C         31.56043        42.46240        -1.02093
C         32.61943        44.49481        -1.99058
C         31.48561        43.78236        -1.33368
C         32.62102        46.00051        -2.08918
C         31.42422        46.70276        -1.52358
C         32.47140        48.81413        -2.43982
C         31.40702        48.15243        -1.63069
C         32.27219        50.26438        -2.60920
C         31.39011        51.04848        -1.94465
C         32.80053        53.27180        -2.04614
C         31.52131        52.52384        -1.77146
C         32.80432        54.75538        -2.15465
C         35.06291        18.87557        -1.05943
C         33.84334        18.23727        -0.84577
C         35.35699        20.15328        -0.54342
C         34.28333        20.84999         0.09443
C         35.45086        22.94081        -0.37556
C         34.36876        22.27423         0.21503
C         35.23142        24.31192        -0.99523
C         34.11285        25.15857        -0.33093
C         35.19671        27.36661        -1.31998
C         34.09586        26.65007        -0.49463
C         35.36517        28.82876        -0.94283
C         34.23001        29.56236        -0.58131
C         35.35681        31.63594        -1.21035
C         34.17252        30.96379        -0.81044
C         35.39361        33.14142        -1.18153
C         34.05886        33.76381        -1.55029
C         35.22441        35.95779        -1.85523
C         34.05120        35.26205        -1.52703
C         35.24875        37.38013        -1.76660
C         34.08825        38.09399        -1.34023
C         35.27981        40.24872        -1.56777
C         34.11473        39.52054        -1.27782
C         35.25110        41.70994        -1.71008
C         34.02534        42.38632        -1.65685
C         35.18938        44.55689        -2.43440
C         33.91385        43.75245        -2.18594
C         35.11791        46.04795        -2.39410
C         33.93829        46.72608        -2.24351
C         35.19534        48.97148        -2.63560
C         33.87573        48.19707        -2.58514
C         35.28564        50.44592        -2.59423
C         34.21026        51.29403        -2.85582
C         35.28786        53.28147        -2.04025
C         34.11191        52.63350        -2.41054
C         35.22864        54.72438        -1.70802
C         33.94606        55.42847        -1.94178
C         38.18370        15.82493        -0.27850
C         37.09277        16.38685        -0.92931
C         38.04339        18.65513        -0.64237
C         37.04491        17.77053        -1.12623
C         37.90472        20.09105        -0.63047
C         36.66869        20.79196        -0.63657
C         37.87452        22.99449        -0.81354
C         36.65295        22.22882        -0.63336
C         37.81625        24.37073        -0.94569
C         36.54509        25.08497        -1.18844
C         37.79079        27.37401        -1.21390
C         36.53443        26.58703        -1.33248
C         37.77824        28.73340        -1.42173
C         36.55204        29.50419        -1.34237
C         37.78173        31.65418        -1.75793
C         36.55951        30.92833        -1.42078
C         37.78483        33.00093        -2.03716
C         36.49051        33.71376        -2.06073
C         37.70635        35.92663        -2.43367
C         36.43828        35.21827        -2.30501
C         37.67638        37.38881        -2.42773
C         36.44772        38.11220        -2.01696
C         37.74056        40.20977        -1.74408
C         36.46319        39.49909        -1.85690
C         37.71562        41.75492        -1.73870
C         36.45028        42.45835        -1.96937
C         37.69278        44.56737        -2.41472
C         36.48469        43.86088        -2.22006
C         37.68839        46.02318        -2.76966
C         36.38103        46.78735        -2.70851
C         37.72222        49.00144        -2.78651
C         36.38381        48.27416        -2.57261
C         37.74382        50.42715        -2.29061
C         36.51914        51.12433        -2.26645
C         37.76107        53.23790        -2.00278
C         36.51886        52.55081        -2.07510
C         37.74424        54.70362        -2.19233
C         36.53328        55.49159        -1.82342
C         37.78403        57.58740        -2.17700
C         36.58405        56.93704        -2.07988
C         40.55247        14.68813         1.01527
C         40.52797        16.00277         0.51917
C         39.29626        16.62792         0.05315
C         40.47845        18.79106        -0.12093
C         39.25296        18.02747        -0.17686
C         40.44884        20.17933        -0.36089
C         39.12790        20.89155        -0.19257
C         40.34724        22.96205        -0.94744
C         39.15624        22.30528        -0.71826
C         40.30380        24.39879        -1.32212
C         39.06951        25.15263        -0.94415
C         40.34328        27.35783        -1.36491
C         39.07285        26.64932        -1.06278
C         40.33644        28.74404        -1.54984
C         39.04315        29.42151        -1.77504
C         40.32094        31.63580        -1.93704
C         39.03600        30.90503        -1.99245
C         40.32512        33.04118        -2.17752
C         39.02114        33.67609        -2.49715
C         40.26040        35.94295        -2.46532
C         38.97479        35.23172        -2.67297
C         40.25849        37.35123        -2.33877
C         38.99985        38.12968        -2.47396
C         40.17073        40.26399        -1.93528
C         38.99955        39.54689        -2.04482
C         40.15571        41.70487        -1.89588
C         38.97555        42.41913        -2.01663
C         40.32120        44.57250        -2.46686
C         38.95700        43.82358        -2.45653
C         40.31296        46.07191        -2.53884
C         38.99272        46.80614        -2.70306
C         40.17934        48.92875        -2.14674
C         38.97410        48.24751        -2.36675
C         40.21507        50.38076        -2.01892
C         38.97735        51.10502        -2.08742
C         40.23725        53.26851        -1.87843
C         38.98393        52.54327        -1.99398
C         40.27872        54.69024        -1.92244
C         39.06261        55.45573        -2.22786
C         40.26261        57.60368        -1.83494
C         39.03590        56.91337        -2.05550
C         40.29968        59.02112        -1.77430
C         42.96920        14.75105         1.15230
C         41.76353        14.08431         1.35602
C         42.98765        16.06998         0.65576
C         41.74848        16.72261         0.39588
C         42.93734        18.81047        -0.19278
C         41.72382        18.10772         0.01685
C         42.90278        20.19327        -0.52782
C         41.65616        20.88914        -0.57615
C         42.84019        22.98736        -1.14485
C         41.63996        22.30068        -0.88664
C         42.85626        24.42261        -1.42799
C         41.56863        25.15675        -1.53607
C         42.76875        27.33381        -1.63392
C         41.57585        26.64509        -1.45273
C         42.80483        28.77759        -1.59861
C         41.54750        29.49214        -1.61020
C         42.75138        31.69676        -1.56779
C         41.51380        30.91875        -1.73822
C         42.78708        33.11546        -1.96843
C         41.52871        33.77719        -2.24716
C         42.71019        35.94369        -2.21540
C         41.49087        35.22679        -2.37928
C         42.66994        37.32942        -1.98062
C         41.44821        38.04100        -2.05110
C         42.68147        40.26168        -1.60040
C         41.45508        39.53193        -2.02771
C         42.64605        41.71844        -1.25674
C         41.39353        42.46006        -1.61409
C         42.69017        44.56424        -1.65757
C         41.48044        43.89280        -1.89384
C         42.68568        46.05185        -1.61027
C         41.47022        46.81500        -2.00768
C         42.70390        48.96207        -1.88596
C         41.42942        48.19234        -1.97138
C         42.66369        50.40836        -1.58756
C         41.43592        51.09336        -1.74756
C         42.65460        53.25563        -1.41267
C         41.44075        52.54206        -1.66174
C         42.67398        54.68331        -1.41093
C         41.47012        55.41011        -1.67033
C         42.69213        57.56392        -1.45289
C         41.47724        56.85586        -1.66539
C         42.68356        58.97367        -1.42170
C         41.49760        59.69158        -1.58078
C         45.47692        16.11446         0.44760
C         44.22705        16.76338         0.35078
C         45.39488        18.76792        -0.49369
C         44.19300        18.11166        -0.10466
C         45.35510        20.16646        -0.86273
C         44.12467        20.88681        -0.80772
C         45.32931        22.95084        -1.36571
C         44.10145        22.27715        -1.12041
C         45.28645        24.33742        -1.96349
C         44.01119        25.10318        -1.68802
C         45.27800        27.27132        -1.81394
C         43.97204        26.56207        -2.12948
C         45.31002        28.75163        -1.65820
C         44.02690        29.47375        -1.65270
C         45.33617        31.65525        -1.78811
C         44.08101        30.92774        -1.50798
C         45.28697        33.07022        -1.92193
C         44.02010        33.76723        -2.02646
C         45.26608        35.96459        -2.05772
C         44.01866        35.20600        -2.50071
C         45.17381        37.35314        -1.51829
C         43.84863        38.01639        -1.37811
C         45.04140        40.31620        -0.63591
C         43.83241        39.48081        -1.07465
C         45.13121        41.70515        -1.25474
C         43.93206        42.43846        -1.34998
C         45.23880        44.50275        -1.76055
C         43.90290        43.85241        -1.46031
C         45.29703        46.02310        -1.62587
C         43.99466        46.76900        -1.53053
C         45.23064        48.98030        -1.31609
C         44.01894        48.24146        -1.81451
C         45.04214        50.37549        -0.89793
C         43.87519        51.08898        -1.21171
C         45.06317        53.25125        -0.90860
C         43.87669        52.54443        -1.15394
C         45.09476        54.68215        -0.89368
C         43.89418        55.39897        -1.17708
C         45.14976        57.49031        -1.06307
C         43.92312        56.82408        -1.23419
C         46.64325        16.74358         0.04721
C         47.83649        18.67341        -0.98707
C         46.62935        18.06133        -0.46149
C         47.75869        20.04147        -1.51367
C         46.54528        20.84245        -1.21467
C         47.90244        22.95367        -1.26179
C         46.54888        22.24734        -1.36906
C         47.85905        24.45196        -1.60537
C         46.55512        25.14269        -1.75849
C         47.79450        27.34452        -2.34457
C         46.52214        26.56201        -2.26014
C         47.75878        28.80990        -2.10751
C         46.58651        29.48923        -1.87043
C         47.79679        31.66065        -1.88383
C         46.56568        30.94653        -1.84600
C         47.76668        33.07612        -1.93107
C         46.54020        33.77919        -1.99458
C         47.69122        35.91567        -1.56281
C         46.54038        35.21985        -1.87680
C         47.65574        37.24856        -0.92185
C         46.34020        37.98291        -0.82431
C         47.62489        40.17434        -0.79639
C         46.32138        39.47062        -0.60714
C         47.63952        41.66441        -0.95021
C         46.36826        42.41956        -1.07558
C         47.49644        44.50278        -0.35715
C         46.40606        43.79384        -1.11834
C         47.66614        45.97816        -0.61819
C         46.54245        46.75020        -1.16531
C         47.46265        48.88087         0.04454
C         46.49995        48.24990        -0.92168
C         47.36568        50.26403         0.19547
C         46.32763        51.03222        -0.58109
C         47.45136        53.31300        -0.11627
C         46.33688        52.53889        -0.68086
C         47.48232        54.68346        -0.14459
C         46.30644        55.39832        -0.62766
C         46.31277        56.79470        -0.75575
C         50.24849        18.66129        -1.40351
C         49.03886        17.99362        -1.09925
C         50.32229        20.01808        -1.68125
C         49.05786        20.74434        -1.96503
C         50.08141        22.95523        -2.42878
C         49.01876        22.23767        -1.98084
C         50.31516        24.37568        -2.16687
C         49.01275        25.11638        -2.37883
C         50.27383        27.24461        -2.07262
C         49.07931        26.61039        -2.19164
C         50.34577        28.73843        -2.16395
C         49.04826        29.52699        -2.20983
C         50.28218        31.62485        -1.67409
C         49.07064        30.96851        -1.87935
C         50.31209        33.08157        -1.63798
C         49.05408        33.79465        -1.99232
C         50.24447        35.99970        -1.33913
C         49.00974        35.30112        -1.75271
C         50.23359        37.33609        -0.99930
C         48.93742        37.98978        -0.67169
C         50.04727        40.19116        -0.41411
C         48.89573        39.46659        -0.52531
C         50.03760        41.64406        -0.27006
C         48.86315        42.38665        -0.54959
C         49.93459        44.43857         0.25000
C         48.81341        43.76483        -0.29454
C         49.82753        45.85467         0.56384
C         48.68321        46.62493         0.10133
C         49.46222        48.39047         1.52005
C         48.52859        47.99650         0.54307
C         49.47876        50.54372         1.64316
C         48.31726        51.13493         0.95049
C         49.82344        53.23105         0.77022
C         48.47102        52.58772         0.65747
C         49.76436        54.71364         0.80817
C         48.65850        55.37173         0.38891
C         52.66267        20.14681        -0.68593
C         51.61170        20.70178        -1.52613
C         53.05196        22.74790        -1.90126
C         51.91509        21.86030        -2.20244
C         52.86445        24.27125        -1.78313
C         51.52146        24.97448        -1.93139
C         52.76546        27.24213        -1.57114
C         51.55020        26.47460        -1.99039
C         52.68863        28.71755        -1.36584
C         51.57448        29.44761        -1.71540
C         52.72577        31.60461        -1.30754
C         51.55668        30.90537        -1.58892
C         52.65375        33.03204        -0.79936
C         51.47159        33.77618        -1.38617
C         52.76420        35.99551        -0.91680
C         51.51517        35.26188        -1.43195
C         52.64254        37.39160        -0.45886
C         51.43385        38.04924        -0.65188
C         52.47375        40.15194         0.33464
C         51.35290        39.49800        -0.40756
C         52.14296        41.44131         1.06282
C         51.14345        42.29960         0.31131
C         52.20319        44.28969         1.32356
C         51.10116        43.68038         0.58953
C         52.02465        45.69314         1.76045
C         50.87282        46.47822         1.27449
C         51.86808        48.61227         2.28993
C         50.74125        47.81854         1.70591
C         51.86253        50.16275         2.24875
C         50.75853        50.99146         1.65757
C         52.18266        53.06070         1.83389
C         51.01199        52.40261         1.20361
C         53.88794        20.71872        -0.61337
C         55.33438        22.85887        -0.64619
C         54.19706        22.03086        -1.22700
C         55.21463        24.32702        -0.60538
C         53.92873        24.99959        -0.97072
C         55.09696        27.27598        -0.53580
C         53.87486        26.50678        -0.88012
C         55.13199        28.65932        -0.58727
C         53.98996        29.39185        -1.20982
C         55.31851        31.59647        -0.89845
C         54.02257        30.90303        -1.31596
C         55.14544        33.07904        -0.63252
C         53.98086        33.78534        -0.77574
C         55.03232        35.91063         0.01758
C         53.95719        35.22145        -0.52265
C         54.92236        37.27610         0.52210
C         53.74131        38.02190         0.25158
C         54.65091        39.92228         1.56012
C         53.63501        39.34269         0.76134
C         54.36704        41.26661         2.25190
C         53.48525        42.13980         1.31924
C         54.50259        44.23569         2.27112
C         53.31565        43.58226         1.74262
C         54.56415        45.75146         2.15954
C         53.20852        46.43239         2.31418
C         54.35890        48.58808         2.70768
C         53.19463        47.92035         2.38867
C         54.44452        50.06487         2.54534
C         53.20564        50.85417         2.22972
C         53.17650        52.33827         2.37133
C         57.24827        22.98832         0.88117
C         56.29052        22.23951         0.27212
C         57.32346        24.40410         0.68959
C         56.24220        25.05272         0.01440
C         57.39709        27.31735         0.59459
C         56.28797        26.52947        -0.12572
C         57.16244        28.75310         0.81241
C         56.16036        29.40280         0.11724
C         57.36337        31.52457         0.52436
C         55.99589        30.91312         0.31591
C         57.56817        32.91326         0.13141
C         56.42545        33.75104        -0.36682
C         57.36160        35.79548         0.93063
C         56.34975        35.26293         0.05447
C         57.14600        37.04398         1.73286
C         55.94607        37.86798         1.30056
C         56.93641        39.71479         2.74751
C         55.82001        39.18160         1.82143
C         56.86925        41.25442         3.02098
C         55.61471        42.03311         2.72479
C         56.94726        44.25434         2.79921
C         55.62976        43.52156         2.60408
C         56.75813        45.60996         3.48594
C         55.54549        46.39716         3.11697
C         56.70196        48.57234         3.50615
C         55.56806        47.88310         3.11657
C         56.69412        50.02202         3.52754
C         55.64240        50.73856         3.07316
C         59.47636        24.45499         1.94100
C         58.40082        25.14177         1.32617
C         59.32402        27.24044         2.19884
C         58.37099        26.56056         1.41386
C         59.18288        28.70811         2.42071
C         58.05779        29.46347         1.77337
C         59.54452        31.56015         1.86192
C         58.12748        31.00211         1.71595
C         59.77724        32.87246         1.53137
C         58.72387        33.62808         0.80138
C         59.84890        35.75865         1.62477
C         58.54192        35.03279         1.24688
C         59.82928        37.27156         1.39507
C         58.43302        37.91297         1.59165
C         59.55467        40.00390         2.48611
C         58.32031        39.31794         2.09250
C         59.49101        41.39358         2.98273
C         58.15890        42.00493         3.29437
C         59.34453        44.27622         3.42460
C         58.03823        43.50469         3.59510
C         59.31324        45.67254         3.69413
C         58.00480        46.33800         3.90899
C         59.24394        48.56166         3.71624
C         57.96166        47.87559         3.89847
C         60.44128        25.13735         2.66802
C         60.34924        26.52129         2.83190
C         60.37621        29.47066         2.85562
C         60.54256        30.77805         2.55857
C         61.04110        33.59562         1.61288
C         61.08738        34.95027         1.50094
C         60.88583        37.96515         2.22266
C         60.74852        39.26468         2.64611
C         60.64073        42.28548         2.78782
C         60.54766        43.63035         3.02671
C         60.47554        46.45604         3.76567
C         60.42866        47.86995         3.76064
O         33.18833        41.18467         0.29802
O         58.20959        39.00977         0.64801
O         35.97198        55.12254        -0.51330
O         58.99234        35.25983         2.64296
O         33.11173        50.82539        -3.56655
O         52.39201        40.28241        -1.12509
O         58.80563        33.32507        -0.60759
O         43.25648        46.50012        -0.29809
O         52.49119        35.82657        -2.35904
O         34.44390        43.93826        -3.53196
O         54.28341        30.07859        -2.49438
O         58.92713        41.39263         4.38031
O         55.64302        45.71940         4.40373
O         33.29199        27.07338         1.85390
O         48.29452        37.21374         0.41068
O         35.98795        18.25014        -1.90953
O         48.16952        20.11830        -2.93179
O         34.74385        27.49058        -2.63404
O         38.95237        29.98544        -3.14032
O         33.96225        24.00334         1.89348
O         32.47713        52.83128        -0.65768
O         40.76897        24.67077        -2.69182
O         27.81353        31.33149         2.16129
O         57.92729        29.00409         3.16822
O         55.94479        41.60022         4.09294
O         41.78118        42.13920        -0.17992
O         42.41670        40.06601        -3.02570
O         28.92870        35.29948         1.75641
O         23.16437        31.48522         1.15554
O         51.05701        22.30221        -3.20453
O         38.26169        37.91217        -3.71116
O         33.25760        25.79119        -1.32773
O         53.41602        23.65870        -2.97644
O         27.39901        39.78579         3.11283
O         50.78956        52.68642        -0.21336
O         32.92531        48.23963        -3.70590
O         32.20658        45.16516        -3.23115
O         33.41617        33.09032        -2.66276
O         26.09368        28.87184        -0.08804
O         49.12601        49.42198         2.39022
O         46.19095        38.53494         0.50787
O         36.12124        34.21056        -3.35713
O         37.76923        40.98328        -0.49390
O         46.83320        51.70750        -1.80488
O         56.80881        34.79338        -1.27156
O         46.23887        46.52534        -2.60505
O         38.96096        34.28915        -3.80186
O         39.19124        25.97317         0.27464
O         49.16334        34.72312        -3.10561
O         47.25743        25.15673        -0.46987
O         53.36002        25.67183         0.22490
O         46.41363        48.93922        -2.20082
O         43.54431        48.66952        -3.10712
O         29.36840        30.81949        -1.27337
O         56.85383        39.06727         3.96728
O         45.38607        27.80464        -0.47452
O         28.94734        50.57802        -2.03965
O         45.48540        37.14064        -2.93784
O         47.77044        52.14971         1.89963
O         29.18761        49.81953         1.35320
O         43.41202        31.42187        -0.28815
O         38.33907        55.06561        -3.46976
O         52.56492        26.90376        -2.98046
O         32.55691        21.35166         2.51979
O         24.37738        33.60084         0.62733
O         43.49557        38.49956        -0.03580
O         52.26406        45.81337         3.22324
O         24.19542        39.25757         1.52881
O         30.44382        37.83422         1.58518
O         26.78900        46.21294        -0.14326
O         28.45572        47.54857        -1.57998
O         54.09225        50.44407         1.13841
O         36.61806        25.71772        -2.51455
O         47.73680        40.78858        -2.14137
O         30.38306        27.43447         2.71277
O         25.66793        35.85768        -0.05943
O         47.03054        26.90996        -3.55666
O         39.87513        46.54796        -3.84848
O         55.42508        22.16251        -1.98440
O         29.13094        33.46089        -1.54639
O         28.97173        44.38034         2.11810
O         39.77520        43.97842        -3.67355
O         36.95209        46.34597        -4.00551
O         57.88254        47.08578         5.13749
O         30.08036        40.70718        -1.81636
O         57.49778        26.97003        -0.82688
O         30.49867        22.81339         3.24183
O         51.57104        49.44212         3.47177
O         49.81324        29.22585        -3.43658
O         31.65293        35.16583         0.89395
O         44.78047        40.65485         0.75250
H         44.69774        39.80029         1.23698
O         33.58186        29.53960         1.63781
H         33.41692        28.82807         2.30688
O         57.66610        43.62175         4.98035
H         58.04463        42.84923         5.45681
O         56.93960        36.63212         3.08965
H         56.84788        37.46893         3.65275
O         28.09773        42.24842        -1.46642
H         28.45341        42.79538        -2.20985
O         45.28799        24.11340        -3.41057
H         44.48342        23.60590        -3.64711
O         44.08793        35.12701        -3.95213
H         44.42734        35.99305        -4.27359
O         51.39302        41.12379         2.25340
H         52.01154        40.94336         3.00344
O         34.75051        23.96536        -2.31031
H         34.80376        24.78709        -2.85561
O         48.23341        22.86634         0.15618
H         47.73599        23.59095         0.60337
O         46.96572        44.46615         1.03468
H         47.69739        44.71760         1.63985
O         52.33790        32.92465         0.64127
H         51.53375        32.37076         0.73566
O         37.84727        49.08456        -4.24583
H         37.76487        48.16500        -4.59721
O         27.29841        44.88932         3.94498
H         28.26606        44.93932         3.76328
O         55.14038        31.12225         1.46787
H         55.72864        31.24604         2.25711
O         43.87174        26.57000        -3.57958
H         43.04547        26.10919        -3.83789
O         53.64662        40.93552         3.45739
H         54.33223        40.80404         4.16310
O         48.66715        24.86420        -3.76779
H         49.14943        25.49791        -4.33952
O         35.74060        33.55478         0.17288
H         35.21379        33.02634         0.80963
O         60.20821        37.44553         0.00768
H         59.80450        38.29472        -0.29015
O         38.94440        21.02933         1.26847
H         39.71434        21.52561         1.61957
O         25.75878        48.78788         4.13333
H         25.16189        48.34173         4.77134
O         57.48057        44.50567         1.47340
H         56.79720        45.00894         0.96548
O         56.26817        31.51783        -1.97817
H         55.88860        30.92463        -2.67023
O         57.41372        31.48842         2.91008
H         57.56375        30.80102         3.60678
O         45.37647        44.22928        -3.19703
H         46.02635        44.88292        -3.54966
O         55.07235        46.04342         0.81979
H         54.51580        45.56607         0.16718
O         29.53777        44.37488        -2.58534
H         30.20218        44.70366        -3.23934
O         31.20408        34.25343        -2.61146
H         31.24757        33.48009        -3.21248
O         54.21017        42.21582         0.05691
H         53.67300        41.81672        -0.66386
H         23.49430        23.52894         3.18355
H         21.40129        24.78835         3.47493
H         21.31981        27.23430         3.09986
H         21.89534        29.03841         3.92080
H         22.09983        31.37748         4.35189
H         22.07738        33.46288         4.61133
H         22.48658        35.85086         4.96881
H         22.35147        37.79926         4.86516
H         22.49930        40.20955         5.06216
H         22.47963        42.17747         4.93998
H         22.49310        44.61460         4.83469
H         22.20671        46.40131         4.13201
H         23.73750        49.95323         2.24763
H         21.87445        48.66728         3.23147
H         25.06102        22.57758         2.70351
H         25.50355        51.05162         2.28105
H         27.15708        21.37255         2.46207
H         27.04344        52.27782         0.82514
H         30.54534        19.19915         1.07773
H         28.64943        20.42041         1.83434
H         30.24853        54.35243        -1.57087
H         28.36408        53.24808        -0.51909
H         31.93529        18.33034         0.14293
H         31.86619        55.30000        -2.33398
H         33.65814        17.24787        -1.28179
H         33.94374        56.52755        -1.94274
H         38.21634        14.73900        -0.12221
H         36.27430        15.75950        -1.30435
H         37.76914        58.68092        -2.27891
H         35.65313        57.51955        -2.08583
H         39.61790        14.12912         1.15722
H         39.37785        59.60378        -1.89397
H         43.90696        14.23338         1.39267
H         41.76751        13.06315         1.76142
H         43.61256        59.53313        -1.25665
H         41.51407        60.78928        -1.54607
H         45.53738        15.08268         0.81768
H         45.20855        58.58241        -1.14950
H         47.58934        16.19113         0.11738
H         47.24191        57.35961        -0.60607
H         51.17847        18.08257        -1.31339
H         49.10364        16.93130        -0.82860
H         50.64393        55.28004         1.14637
H         48.65271        56.46979         0.42730
H         52.47879        19.20007        -0.16005
H         52.21496        54.15927         1.87019
H         54.68137        20.20836        -0.05264
H         54.03114        52.85060         2.83575
H         57.97679        22.47987         1.52422
H         56.30831        21.14712         0.37245
H         57.56597        50.55136         3.93465
H         55.68273        51.83579         3.08480
H         59.57478        23.36734         1.84041
H         59.26229        49.64271         3.52137
H         61.26695        24.58541         3.13688
H         61.09401        27.03424         3.45322
H         61.17865        28.94099         3.38668
H         61.47451        31.28094         2.85568
H         61.97928        33.02477         1.67912
H         62.05222        35.47201         1.43017
H         61.85503        37.45960         2.33990
H         61.60920        39.75856         3.12221
H         61.58261        41.85961         2.41493
H         61.44517        44.24343         2.86180
H         61.46342        45.97752         3.73271
H         61.37687        48.42194         3.69314
