         621
 CSIRO Nanostructure Databank - Neutral Graphene Oxide Data Set
C          5.89746        31.71877        -0.37336
C          5.91142        33.07816        -0.38268
C          8.31470        27.41365        -0.07505
C          8.31526        28.83160         0.00112
C          7.10627        29.57282        -0.13812
C          8.30352        31.68267         0.21144
C          7.09844        30.96595        -0.09137
C          8.28532        33.09576         0.38957
C          7.08281        33.83036         0.01786
C          8.14022        35.99524         0.56617
C          7.08805        35.20726        -0.06980
C          8.32902        37.40491         0.23944
C         10.79957        23.13338        -0.29388
C         10.72148        24.53117        -0.35811
C          9.52767        25.25525        -0.16585
C         10.76421        27.40532        -0.13020
C          9.51091        26.67841        -0.13175
C         10.77701        28.80894         0.11928
C          9.54403        29.53670         0.17768
C         10.73591        31.67643         0.56456
C          9.53687        30.96784         0.32882
C         10.73558        33.09132         0.81949
C          9.45925        33.77671         0.78709
C         10.62075        35.96632         1.43657
C          9.37405        35.19834         1.11083
C         10.58060        37.47224         1.32585
C          9.44465        38.14116         0.63285
C         10.74183        40.27455         0.50301
C          9.54511        39.52498         0.34611
C         10.76432        41.67693         0.22620
C         13.32506        18.96988         0.39435
C         13.30148        20.33188         0.07985
C         12.07214        21.02941        -0.11430
C         13.28738        23.11284        -0.54197
C         12.04082        22.41751        -0.33533
C         13.25131        24.55100        -0.87814
C         11.93800        25.29604        -0.72100
C         13.20155        27.44240        -0.41511
C         11.97620        26.73723        -0.40010
C         13.23227        28.83187        -0.04670
C         12.01918        29.48687         0.24836
C         13.27198        31.63106         0.89141
C         11.98294        30.89767         0.70250
C         13.24515        33.12922         0.81371
C         11.94308        33.79590         1.05302
C         13.20384        36.04286         1.35156
C         11.94649        35.23542         1.41062
C         13.16900        37.41248         1.36974
C         11.90807        38.20690         1.32791
C         13.18083        40.32105         0.83558
C         11.95627        39.60831         0.85117
C         13.18536        41.72488         0.53415
C         11.94802        42.42432         0.25859
C         13.14802        44.59819        -0.01458
C         11.96585        43.84961         0.05311
C         13.18975        45.99697        -0.25378
C         15.82101        14.70386         0.11714
C         15.80528        16.12371         0.28244
C         14.60644        16.82791         0.40084
C         15.82967        19.01319         0.46519
C         14.57368        18.26525         0.83094
C         15.77416        20.39568         0.27133
C         14.53786        21.08328         0.01129
C         15.82373        23.13694        -0.74608
C         14.51132        22.45250        -0.37554
C         15.75592        24.66317        -0.81457
C         14.49539        25.34760        -0.83048
C         15.61467        27.55478        -0.99343
C         14.42199        26.74237        -0.73487
C         15.62782        28.96327        -0.56287
C         14.50415        29.55147        -0.02480
C         15.85125        31.65522         0.78032
C         14.56405        30.89445         0.65387
C         15.84627        33.15331         1.01859
C         14.53652        33.88536         0.95511
C         15.74310        36.05025         1.27746
C         14.49716        35.26752         1.61223
C         15.74803        37.49148         1.47522
C         14.40516        38.23212         1.52380
C         15.63114        40.36699         1.08879
C         14.41105        39.65803         1.15237
C         15.61122        41.75047         0.74641
C         14.40429        42.42879         0.50658
C         15.63002        44.64174         0.45483
C         14.45281        43.83552        -0.05819
C         15.64989        46.12110         0.15480
C         14.39679        46.75431        -0.32318
C         15.74563        48.78659        -0.79999
C         14.48201        48.10155        -0.68567
C         15.82687        50.17778        -1.00347
C         18.14618        10.23005         0.24599
C         17.84363        11.59682         0.47968
C         16.88767        12.49271        -0.00488
C         18.26266        14.64713         0.21588
C         16.99541        13.93119         0.16915
C         18.25419        16.08628         0.23661
C         17.07341        16.82816         0.33383
C         18.25378        18.98899         0.07363
C         17.07982        18.29290         0.35717
C         18.32464        20.45197         0.17165
C         17.01452        21.18586         0.35617
C         18.29425        23.34665        -0.06901
C         16.92028        22.69745         0.23829
C         18.24027        24.74685        -0.56716
C         16.93843        25.38168        -0.83556
C         18.24606        27.56860        -0.96295
C         16.96873        26.81499        -1.11630
C         18.19262        28.95349        -0.88749
C         16.91805        29.68162        -0.68158
C         18.36105        31.32956         0.50975
C         17.01840        31.02428         0.05512
C         18.32917        33.37874         1.14652
C         16.98490        33.93288         1.09001
C         18.14458        36.13029         0.74653
C         16.93665        35.39619         1.01780
C         18.14250        37.54095         0.81965
C         16.96455        38.23822         1.16949
C         18.10441        40.38616         1.33560
C         16.91637        39.67493         1.23007
C         18.17685        41.78875         0.91913
C         16.87897        42.47755         0.51649
C         18.12662        44.61558         0.41038
C         16.90833        43.93357         0.49314
C         18.13542        45.98691         0.01036
C         16.95194        46.73663        -0.18534
C         18.21033        48.66502        -1.35408
C         16.97651        48.04855        -0.69621
C         18.31716        50.16406        -1.15711
C         17.07244        50.88608        -1.06609
C         18.33338        52.99763        -1.15878
C         17.10781        52.29020        -1.06810
C         18.36931        54.41203        -1.13192
C         20.70129         6.13412         1.23638
C         20.66800         7.51761         0.92861
C         19.49076         8.25163         0.78927
C         20.67768        10.40446         0.46307
C         19.43400         9.66817         0.52092
C         20.79600        11.80500         0.28757
C         19.69116        12.66361         0.56671
C         20.77100        14.67609        -0.26427
C         19.52344        13.97439         0.11914
C         20.61109        16.09277        -0.65792
C         19.54450        16.80309         0.07815
C         20.56888        18.94285        -0.96742
C         19.53086        18.28341        -0.10483
C         20.55210        20.41826        -1.09571
C         19.49049        21.18893        -0.38849
C         20.58451        23.21902        -1.29951
C         19.48771        22.54131        -0.47218
C         20.64864        24.69862        -1.05239
C         19.48830        25.41965        -1.00097
C         20.75350        27.52162        -0.95575
C         19.49404        26.86205        -0.98249
C         20.79460        28.98699        -0.97106
C         19.45303        29.73004        -0.93244
C         20.74297        31.67634         0.11275
C         19.50720        30.97855        -0.15463
C         20.68810        33.20243         0.08654
C         19.42017        33.93693         0.55152
C         20.71981        36.10096         0.45712
C         19.38137        35.40324         0.35442
C         20.73156        37.57821         0.68565
C         19.41447        38.30425         0.66890
C         20.61157        40.36947         1.80104
C         19.41573        39.71961         1.16598
C         20.57381        41.96973         1.75327
C         19.37505        42.58394         1.15044
C         20.61976        44.60139         0.63752
C         19.37972        43.91335         0.70635
C         20.64685        46.03359         0.29552
C         19.43100        46.58788        -0.36572
C         20.79404        48.67701        -0.96117
C         19.50405        47.93125        -1.01350
C         20.82830        50.08645        -1.51868
C         19.53114        50.83681        -1.25700
C         20.79451        53.00104        -1.33384
C         19.56891        52.27238        -1.25039
C         20.80233        54.41910        -1.47415
C         19.55260        55.15327        -1.31716
C         20.41150        57.50351        -1.57958
C         19.46257        56.57972        -1.11846
C         20.74368        58.79404        -1.14664
C         23.22014         3.37957         1.73298
C         21.98283         4.03043         1.54326
C         23.17806         6.18369         1.55954
C         21.91138         5.42656         1.41613
C         23.19241         7.61529         1.12083
C         21.94836         8.15993         0.44018
C         23.20858        10.22972        -0.14648
C         21.98681         9.67908         0.65791
C         23.23906        11.73224        -0.13209
C         22.03513        12.42479        -0.13172
C         23.31901        14.42266        -0.95669
C         22.05672        13.88633        -0.38137
C         23.40885        15.66717        -1.61104
C         21.52614        16.77903        -1.39557
C         23.05471        18.76052        -1.53179
C         21.81434        18.19707        -1.30328
C         23.13144        20.25879        -1.65738
C         21.85018        21.06783        -1.48425
C         23.14692        23.14808        -1.26619
C         21.93067        22.51516        -1.21426
C         23.16047        24.63487        -1.27221
C         21.95227        25.32662        -0.68502
C         23.21455        27.50621        -0.71692
C         21.96612        26.82050        -0.84476
C         23.19984        28.92573        -0.45229
C         22.01252        29.63986        -0.44699
C         23.20482        31.64841         0.41726
C         21.96563        31.02870        -0.04113
C         23.14266        33.03210         0.94470
C         21.87693        33.83668         0.78681
C         23.07105        35.94023         1.26735
C         21.95281        35.32651         0.78867
C         23.07271        37.36500         1.68588
C         21.93286        38.23815         1.27009
C         23.02732        40.07589         2.43393
C         21.87798        39.60084         1.86016
C         23.09060        42.20641         2.08348
C         21.83741        42.70957         1.60875
C         23.10374        44.51631         0.47178
C         21.82374        43.93830         0.92183
C         23.20480        45.94959         0.17310
C         21.94782        46.73116         0.08346
C         23.26073        48.71145        -0.73745
C         21.94429        48.04126        -0.61252
C         23.24312        50.19224        -0.70087
C         22.05018        50.85601        -1.03706
C         23.25753        52.95261        -0.89958
C         22.04253        52.26656        -1.11948
C         23.32811        54.35541        -1.32045
C         22.08287        55.08601        -1.57600
C         23.38278        57.24225        -1.57899
C         22.25023        56.42128        -1.92751
C         23.27717        58.68149        -1.53389
C         22.03182        59.40164        -1.39205
C         23.30105        61.51466        -1.35449
C         22.09378        60.81232        -1.27983
C         24.42935         4.06319         1.76996
C         25.66046         6.20460         1.53310
C         24.47613         5.48160         1.63159
C         25.70239         7.60279         1.18440
C         24.48409         8.28083         0.85164
C         25.71324        10.30991         0.29766
C         24.49207         9.59630         0.37585
C         25.72441        11.70058        -0.07687
C         24.50039        12.39033        -0.29884
C         25.76438        14.46875        -0.87514
C         24.53181        13.77083        -0.66267
C         25.75531        15.88999        -1.20943
C         24.50221        16.52382        -1.54194
C         25.63744        18.80473        -1.81873
C         24.34173        18.00157        -1.82201
C         25.64291        20.27487        -1.51329
C         24.42077        20.99572        -1.48247
C         25.64922        23.12996        -1.18898
C         24.41044        22.41622        -1.34226
C         25.69252        24.57851        -1.01154
C         24.45915        25.37130        -1.14428
C         25.67961        27.44127        -0.40205
C         24.44071        26.78992        -0.73189
C         25.67155        28.77731         0.00357
C         24.50828        29.66698        -0.35877
C         25.61169        31.56174         1.01447
C         24.39556        30.96697         0.40671
C         25.61287        33.04967         1.32943
C         24.37496        33.77886         1.11245
C         25.52425        35.96407         0.86361
C         24.36728        35.20230         1.56681
C         25.56059        37.44357         1.28501
C         24.37960        38.01945         2.01332
C         25.62348        40.34757         2.14311
C         24.38024        39.49218         2.31523
C         25.58747        41.82589         1.84841
C         24.34312        42.54316         1.57661
C         25.64553        44.51304         0.67079
C         24.38926        43.75998         0.73104
C         25.68181        45.83250         0.24671
C         24.43068        46.53232        -0.00507
C         25.70335        48.69246         0.08047
C         24.50279        47.95502        -0.41254
C         25.65771        50.18527         0.08385
C         24.42541        50.89318        -0.36832
C         25.63815        53.05266        -0.06274
C         24.43164        52.29050        -0.48779
C         25.68195        54.53068        -0.29847
C         24.60760        55.14208        -1.12855
C         25.81206        57.32993        -1.04048
C         24.57500        56.60994        -1.19119
C         25.75307        58.72626        -1.27592
C         24.51756        59.40358        -1.43096
C         24.50436        60.82852        -1.41840
C         26.91746         8.30160         1.05398
C         28.15709        10.39977         0.56087
C         26.94499         9.65814         0.63896
C         28.19065        11.74441         0.14680
C         26.94954        12.41246        -0.18872
C         28.24971        14.42313        -0.89470
C         26.96077        13.76652        -0.63108
C         28.24696        15.91886        -1.23421
C         26.94791        16.61170        -1.29436
C         28.25120        18.78009        -1.56996
C         26.94488        18.03624        -1.69008
C         28.19259        20.28252        -1.50639
C         26.86691        20.97360        -1.34350
C         28.10783        23.07816        -0.76104
C         26.85328        22.37203        -1.14701
C         28.14416        24.55866        -0.93297
C         26.87534        25.29144        -0.76908
C         28.17987        27.37487        -0.31490
C         26.92650        26.69273        -0.47891
C         28.20594        28.79522        -0.00600
C         26.93346        29.40833         0.41249
C         28.15428        31.63438         0.58194
C         26.93318        30.85530         0.85031
C         28.14250        33.10006         0.85285
C         26.89624        33.83121         1.30833
C         28.05617        36.01364         0.91534
C         26.85712        35.28986         1.06271
C         28.08076        37.55136         0.64819
C         26.80073        38.26431         1.12207
C         28.06361        40.30589         1.69688
C         26.88022        39.64586         1.68619
C         28.09043        41.77792         2.07296
C         26.80314        42.43654         1.59803
C         28.18082        44.40075         0.63509
C         26.86591        43.72291         0.87679
C         28.15524        45.86144         0.38505
C         26.95137        46.54182         0.16702
C         28.19004        48.70063        -0.00277
C         27.00414        47.98302         0.03205
C         28.15278        50.15283         0.04701
C         26.96616        50.86460         0.04425
C         28.22232        53.08202         0.06875
C         26.94737        52.33194         0.18858
C         28.23638        54.45663        -0.10983
C         27.02712        55.28348        -0.24575
C         27.02724        56.63504        -0.80886
C         29.41066        12.47974         0.11954
C         30.64744        14.57671        -0.28994
C         29.47342        13.81262        -0.32756
C         30.67506        15.97598        -0.57715
C         29.47734        16.69070        -0.95636
C         30.68877        18.81381        -0.83051
C         29.47504        18.08034        -1.06058
C         30.72100        20.22653        -0.87614
C         29.47459        20.97933        -1.17109
C         30.70439        23.13084        -0.61928
C         29.41955        22.37827        -0.66695
C         30.67681        24.49983        -0.51845
C         29.44633        25.27716        -0.78596
C         30.66416        27.40632        -0.36703
C         29.42333        26.71122        -0.43541
C         30.73234        28.87982        -0.00843
C         29.36929        29.54941         0.03228
C         30.57149        31.79741         0.04577
C         29.32232        30.98792         0.21789
C         30.50926        33.21298         0.52166
C         29.22675        33.92576         0.19280
C         30.53449        36.12767         0.41518
C         29.26466        35.34999         0.69900
C         30.53798        37.51220         1.00219
C         29.36072        38.14920         1.23312
C         30.57342        40.32715         1.25074
C         29.36911        39.54829         1.85734
C         30.68636        41.72764         1.90383
C         29.38571        42.47179         1.63888
C         30.66516        44.42199         0.79479
C         29.42367        43.73194         1.11030
C         30.53475        45.69967         0.18216
C         29.40433        46.51642         0.20560
C         30.70212        48.75480         0.43193
C         29.52130        47.98182        -0.21130
C         30.58879        50.15341         0.49698
C         29.40586        50.89194         0.20768
C         29.41569        52.29229         0.16743
C         31.87360        16.69226        -0.42692
C         33.12561        18.81489        -0.44690
C         31.91200        18.10141        -0.56027
C         33.16532        20.22364        -0.53366
C         31.92184        20.93984        -0.68567
C         33.17847        23.05333        -0.61586
C         31.95156        22.38377        -0.63057
C         33.21273        24.50969        -0.40086
C         31.90469        25.26668        -0.30197
C         33.12137        27.42184        -0.85829
C         31.86884        26.72527        -0.51793
C         33.09193        28.93285        -1.04607
C         31.72017        29.64948        -0.90399
C         33.20244        31.67028        -0.14098
C         31.84199        31.11121        -0.39896
C         33.41870        32.88709         0.51923
C         31.56131        33.93883         0.98303
C         33.05292        35.91851         0.76087
C         31.78644        35.34852         0.78901
C         33.06225        37.43678         0.59882
C         31.83593        38.16774         1.14702
C         33.11749        40.25243         1.59011
C         31.85328        39.51781         1.35825
C         33.13137        41.72539         1.42872
C         31.94082        42.43931         1.40191
C         33.19710        44.56296         1.11459
C         31.93215        43.83436         1.06064
C         33.26150        46.01164         1.23927
C         32.34298        46.85058         0.61772
C         31.92339        48.18071         0.87896
C         34.39196        20.93454        -0.48954
C         35.66599        23.05647        -0.53212
C         34.44258        22.34577        -0.59653
C         35.76941        24.47360        -0.85251
C         34.40732        25.26998        -0.84653
C         35.61487        27.43927        -0.75249
C         34.43217        26.74101        -0.69393
C         35.60780        28.90625        -0.81213
C         34.37325        29.63557        -0.89848
C         35.58310        31.80046        -0.67142
C         34.37868        31.04135        -0.63029
C         35.58582        33.18956        -0.41815
C         34.45962        33.79152         0.20921
C         35.51325        35.99098         0.41583
C         34.34710        35.22365         0.53420
C         35.54497        37.40218         0.76779
C         34.37065        38.07836         0.99420
C         35.65764        40.25934         1.21124
C         34.40588        39.49412         1.41430
C         35.60939        41.67213         1.24324
C         34.39605        42.40227         1.29933
C         34.37927        43.82412         1.27134
C         36.93757        25.30618        -0.65314
C         38.08008        27.46778        -0.55982
C         36.90168        26.72537        -0.68466
C         38.04110        28.92124        -0.19870
C         36.80596        29.60795        -0.70380
C         38.13613        31.79652        -0.95891
C         36.82867        31.06009        -0.95554
C         38.12016        33.30269        -0.85045
C         36.79457        34.00368        -0.66989
C         38.06477        36.04929         0.25097
C         36.77094        35.42122        -0.14063
C         38.02335        37.41263         0.69204
C         36.82831        38.10997         0.85476
C         36.83483        39.52794         1.02641
C         39.32340        29.70242        -0.36936
C         40.56296        31.82588        -0.24849
C         39.36025        31.05230        -0.54513
C         40.56415        33.17176        -0.11401
C         39.37324        34.00779        -0.40618
C         39.25466        35.35988         0.17193
O         17.86301        20.87515         1.51152
O         23.71036        43.65327        -0.56848
O         15.37699        30.83907         1.89060
O         28.24136        37.69137        -0.73043
O         32.68487        24.91007         0.90875
O         25.44560        49.40498         1.33491
O         36.61662        35.12425        -1.57885
O         15.11742        37.91695         2.76953
O         27.04350        29.79333         1.85053
O         18.51948        24.42744         0.88968
O         12.58032        31.11120         2.05871
O         20.01770        17.69016         1.15523
O         34.96653        24.81555        -2.06340
O         15.46223        45.60507         1.52988
O         33.83710        39.73329         2.76480
O         33.06788        28.04354        -2.20555
O         18.72457        12.17087         1.43431
O         20.30126        41.17537         2.95270
O         25.23110        39.85926         3.45775
O         24.95643        18.46141        -3.06591
O         16.86472        30.96670        -1.38980
O         31.65887        46.23110        -0.45697
O         23.74427        25.20196        -2.46190
O         23.59115        37.38973         3.06465
O         25.74911        38.27066         0.08583
O         21.74247        38.20050        -0.18188
O         26.06445        52.73417         1.29647
O         25.44954        32.03012         2.38809
O         28.40871        14.88611        -2.27055
O         32.59729        33.22004         1.58601
O         27.92718        33.41104         2.25651
O         12.43686        24.91567        -2.05108
O         31.07654        31.93202        -1.35363
O         16.22291        27.25891        -2.28916
O         17.73129        41.88058        -0.50463
O         20.22909        29.64801        -2.15027
O         28.60786        22.58751         0.54640
O         37.55090        31.36552        -2.22807
O         11.20997        35.49316         2.67591
O         27.57367        43.59844        -0.43889
O         23.00362        41.27936         3.13579
O         29.02182        20.88664        -2.56450
O         24.34958        54.48751        -2.41028
O         28.88254        24.98054        -2.13117
O         22.33973        20.71989        -2.81522
O          8.29496        35.61994         1.98173
O         20.07998        35.87066        -0.85483
O         22.28339        16.06818        -2.32045
O         23.11269         9.99587        -1.52930
O         21.21923        46.84611         1.38277
O         19.48942        39.40349        -0.28160
O         24.13753        48.18571        -1.81900
O         21.74361        14.63399         0.87984
O         19.96348        19.57716        -2.15004
O         13.92243        33.73791        -0.36834
O         29.53376        39.41204         3.23714
O         11.05572        38.11381         2.53412
O         19.62483        46.70379        -1.83173
O         27.81417        18.25852        -2.86083
O         22.16693        33.25609         2.08917
O         26.03001        55.25323         0.88168
O         21.22786        57.03818        -2.63825
O         23.02709         7.28952         2.53649
O         18.44826        32.08573         1.67756
O         38.97341        33.93724        -1.83712
O         16.46672        23.16967         1.51674
H         17.10575        22.85343         2.19164
O         37.85893        28.92537         1.29372
H         38.50892        28.29049         1.66543
O         24.83110        30.09102        -1.74308
H         24.67225        29.32705        -2.33905
O         20.15004        23.08595        -2.68686
H         20.40132        22.19688        -3.02003
O         31.27979        28.95688         1.33736
H         30.63628        28.55954         1.96177
O         20.95191        49.97672        -2.96486
H         21.75455        49.44897        -3.16313
O         30.49547        36.29273        -1.04839
H         29.65169        36.85211        -1.18895
O         24.68526        35.17026         2.97263
H         24.01711        34.61612         3.42984
O         25.21180        35.88657        -0.54162
H         25.64821        36.66246        -0.97466
O         28.96095        33.93971        -1.22392
H         29.60030        34.57066        -1.63265
O         30.32703        40.56030        -0.14260
H         30.18433        39.69889        -0.59210
O         20.82878        33.42837        -1.33507
H         20.62581        34.37867        -1.53387
O         30.90184        41.58279         3.31535
H         30.51124        40.70441         3.60208
O         32.96124        37.68206        -0.84767
H         32.14534        37.21363        -1.16534
O         29.78072        48.00761        -1.64416
H         30.58584        47.46135        -1.79291
O         14.76468        43.67024        -1.48163
H         14.06586        43.11210        -1.88323
O         17.97426        48.48093        -2.77997
H         18.35443        47.60283        -3.01684
O         16.22108        22.65015        -2.05005
H         15.58259        22.98040        -2.71678
O         22.34140         9.94147         2.04122
H         21.72903         9.44392         2.62374
O         21.98634         7.79656        -0.95135
H         22.43190         8.53851        -1.46861
O         14.53565        18.24464         2.32625
H         15.45964        18.16189         2.64696
O         31.10203        29.64427        -2.19093
H         31.58820        30.25028        -2.78706
O         14.52148        35.01266         3.04183
H         14.53864        35.88816         3.49212
O         22.08480        25.05753         0.76657
H         21.24223        25.31692         1.19986
O         28.06419        41.81877         3.52663
H         28.53294        41.00301         3.84079
H          4.98136        31.16746        -0.63017
H          5.00394        33.64087        -0.64575
H          7.35212        26.88423        -0.13329
H          6.16920        29.03134        -0.33583
H          6.24937        35.73217        -0.55126
H          7.56223        37.89290        -0.38125
H          9.88154        22.55983        -0.09436
H          8.58354        24.70871        -0.02152
H          8.66328        40.03138        -0.07381
H          9.81416        42.18008        -0.00798
H         12.37449        18.41804         0.45601
H         11.12569        20.47904        -0.00582
H         10.99803        44.36848        -0.03065
H         12.23702        46.52366        -0.42398
H         14.85308        14.18634         0.03439
H         13.65340        16.28201         0.32337
H         13.56494        48.66044        -0.92774
H         14.89660        50.76554        -1.03953
H         17.35621         9.55048        -0.10886
H         16.00353        12.11167        -0.53787
H         16.16656        52.85716        -1.01030
H         17.42434        54.95692        -0.98732
H         19.75128         5.57925         1.30185
H         18.53179         7.74218         0.97907
H         18.61521        56.94617        -0.51881
H         20.01816        59.37295        -0.55512
H         23.22626         2.28438         1.82774
H         21.06357         3.43070         1.47518
H         23.29453        62.61254        -1.31228
H         21.15507        61.37028        -1.15164
H         25.36994         3.50398         1.88019
H         26.61792         5.67194         1.64344
H         26.67809        59.32030        -1.22800
H         25.45919        61.37275        -1.39924
H         27.86418         7.79362         1.29118
H         29.10075         9.90489         0.83765
H         29.20463        54.95472        -0.27382
H         27.98381        57.16090        -0.94513
H         30.33264        11.99030         0.46845
H         31.57742        14.10479         0.06152
H         31.48483        50.72904         0.78126
H         30.38039        52.81652         0.24771
H         32.79938        16.15049        -0.18350
H         34.06205        18.25710        -0.29806
H         34.03678        46.43258         1.89776
H         32.57260        48.81402         1.50533
H         35.33107        20.36873        -0.39973
H         36.58196        22.51369        -0.25617
H         36.55366        42.23125         1.15183
H         35.33820        44.36212         1.31895
H         37.86934        24.81790        -0.33075
H         39.04320        26.93807        -0.49295
H         38.97744        37.94450         0.82701
H         37.79620        40.05897         0.95017
H         40.24867        29.18724        -0.06099
H         41.48030        31.25850        -0.02901
H         41.48498        33.68746         0.19807
H         40.17773        35.85073         0.51786
