         294
 CSIRO Nanostructure Databank - Neutral Graphene Oxide Data Set
C          2.60993         4.21035         3.56296
C          2.17388         4.98196         2.42128
C          3.72245         3.41827         3.52074
C          2.81561         4.89749         1.22733
C          1.14902         6.49974         0.15650
C          1.16590         7.84074         0.03224
C          2.35028         5.62419        -0.05757
C          2.38091         8.61136        -0.20071
C          1.28128        10.67211         0.63050
C          1.08293        12.01934         0.79383
C          2.42290         9.96845         0.03724
C          2.02096        12.98862         0.26856
C          1.52871        14.91560         1.61409
C          1.71334        16.20260         1.99920
C          2.48877        14.16722         0.83593
C          3.06846        16.77908         1.96601
C          3.23008        18.24520         2.16000
C          4.53695         3.34639         2.33603
C          4.04980         4.03989         1.07460
C          5.69743         2.61494         2.23688
C          5.20847         4.90510         0.53702
C          3.55510         6.38241        -0.55667
C          3.52774         7.85742        -0.86030
C          4.76286         5.57565        -0.86862
C          4.88803         8.53491        -0.80680
C          3.76943        10.66185         0.03217
C          3.81403        11.99942        -0.67724
C          4.95265         9.84772        -0.41121
C          4.90977        12.78443        -0.76744
C          3.99429        14.58552         0.76014
C          4.19575        15.99995         1.36058
C          4.74485        14.32275        -0.60398
C          5.49754        16.79022         1.11557
C          4.23095        18.93788         1.59911
C          5.24735        18.27082         0.69610
C          6.55828         2.74321         1.06755
C          6.45407         4.05247         0.35968
C          7.56315         1.89077         0.72394
C          7.39987         4.34991        -0.73771
C          5.94808         6.34641        -1.48214
C          6.04458         7.81612        -1.31674
C          7.22514         5.56724        -1.58741
C          7.31476         8.42818        -1.41285
C          6.22834        10.60045        -0.48226
C          6.22914        12.09207        -0.70845
C          7.46657         9.72837        -0.60846
C          7.32102        12.76656        -1.53627
C          6.14056        14.99618        -0.67752
C          6.43850        16.21497         0.08922
C          7.38625        14.27314        -1.22456
C          7.63715        16.87388        -0.06385
C          6.56454        18.99275         0.68982
C          7.85193        18.24696         0.55940
C          8.41124         1.98453        -0.54382
C          8.48457         3.39451        -1.23617
C          9.78851         1.39374        -0.31533
C          9.79114         4.17337        -1.07006
C          8.55817         6.19974        -1.94429
C          8.51317         7.71696        -1.71679
C          9.79750         5.50191        -1.39292
C          9.80730         8.26920        -1.95624
C          8.68494        10.56633        -0.98917
C          8.65900        12.02109        -1.40762
C          9.99989        10.18190        -0.37135
C          9.95148        12.76713        -1.30697
C          8.70334        14.92699        -1.07770
C          8.76832        16.24464        -0.69726
C          9.87698        14.21133        -1.72667
C         10.08364        17.00132        -0.66910
C          8.78802        19.08526        -0.27390
C          9.89556        18.49890        -0.86535
C         10.97218         2.06198        -0.42495
C         11.02520         3.49507        -0.71293
C         12.25060         1.34585        -0.38898
C         12.22674         4.18222        -0.61916
C         11.12541         6.16034        -1.72867
C         11.03801         7.66995        -1.32192
C         12.32399         5.57301        -1.01175
C         12.32556         8.45049        -1.71745
C         11.23231        10.67246        -1.06016
C         11.14735        12.13495        -1.14874
C         12.31674         9.97118        -1.48741
C         12.44722        12.85812        -0.95566
C         11.18180        14.95169        -1.54579
C         11.05765        16.44970        -1.71436
C         12.34240        14.33073        -1.25944
C         12.38100        17.19635        -1.66603
C         11.01511        19.26388        -1.27665
C         12.31404        18.65074        -1.34378
C         13.43730         1.99066        -0.29594
C         13.41896         3.47834         0.01264
C         14.74021         1.22827        -0.51412
C         14.68880         4.19346        -0.40875
C         13.45430         6.34728        -0.80957
C         13.53235         7.78955        -1.07068
C         14.67730         5.70076        -0.17584
C         14.65711         8.53943        -0.81647
C         13.63504        10.66931        -1.85431
C         13.57993        12.25231        -1.82196
C         14.70353        10.07067        -0.87305
C         14.89375        12.93147        -1.39973
C         13.61034        15.07672        -0.95372
C         13.67455        16.47570        -1.52541
C         14.88706        14.27944        -1.15995
C         14.96002        17.25912        -1.22214
C         13.44290        19.29199        -0.88603
C         14.64721        18.51956        -0.37716
C         15.98514         2.00740        -0.13081
C         15.97617         3.43883        -0.51678
C         17.07023         1.45416         0.44657
C         17.31164         4.16863        -0.63915
C         15.93843         6.37692        -0.74765
C         15.88596         7.84621        -0.34722
C         17.18919         5.64563        -0.28441
C         17.15441         8.59766        -0.08821
C         16.11965        10.61952        -1.22770
C         16.14375        12.15592        -1.20659
C         17.18463        10.09967        -0.23632
C         17.21996        12.81973        -0.35007
C         16.05128        15.01118        -0.64145
C         16.01020        16.41161        -0.52637
C         17.04203        14.22369         0.01279
C         17.11868        17.13399         0.11479
C         15.89728        19.40504        -0.19082
C         17.01334        18.58569         0.44706
C         18.26367         2.25941         0.91899
C         18.44668         3.57559         0.17231
C         19.58156         1.50402         0.87159
C         19.60992         4.26295         0.29253
C         18.46292         6.38824        -0.11864
C         18.44169         7.85765        -0.35521
C         19.77653         5.63727        -0.35175
C         19.76234         8.56928        -0.33118
C         18.57164        10.71511        -0.31253
C         18.07611        11.88371         0.49862
C         19.68092        10.00401         0.01776
C         19.10377        12.52392         1.42805
C         17.88037        14.83331         1.02102
C         18.08251        16.29794         0.92865
C         19.02928        14.00912         1.69949
C         18.90834        16.90538         2.01939
C         17.88201        19.16643         1.30592
C         18.87618        18.41516         2.12000
C         20.73502         2.17513         0.99193
C         20.71853         3.68167         1.14697
C         22.04631         4.35487         0.90269
C         20.98569         6.43463         0.11911
C         20.99937         7.80926         0.02485
C         22.14258         5.64695         0.51629
C         22.17161         8.65258         0.27716
C         20.67405        10.40814         1.09083
C         20.45788        11.85134         1.58629
C         22.05170         9.93948         0.67691
C         21.61762        12.73343         1.82832
C         20.22383        14.75190         2.08153
C         20.13427        16.15487         2.39582
C         21.48541        14.07333         2.05701
C         21.14905        16.87375         3.02010
C         20.09185        19.05598         2.62301
C         21.12173        18.29713         3.11224
O          2.58145        12.57138        -0.93738
O         15.14257         3.72843        -1.71626
O          3.97240        15.94368         2.82261
O         18.46533        16.74013        -0.40121
O         17.69274         5.96069         1.04213
O          6.52144        15.08325        -2.09073
O          8.74311        10.94315        -2.39136
O         19.09850         8.23450        -1.59624
O         10.07599         9.83339         0.80536
O         18.19648        17.53456         3.11052
O         17.37013        12.65225        -1.81814
O          8.32418         3.25882        -2.63208
O         16.33088         8.14749         1.01595
O         13.17370        16.77442        -2.85953
O         17.04310        10.89491         1.05065
O          7.67076         4.84590         0.63546
O         17.78929        14.35096         2.39074
O          6.54813        11.58023         0.62770
O          6.32618         5.66684        -2.73516
O         19.43982        11.83481         2.66214
O          6.22397        16.81104         2.36856
H          5.55896        16.62640         3.08048
O          9.54209        14.17797        -3.15074
H          9.62299        15.11602        -3.46032
O         10.68522        16.81143         0.62966
H         10.06701        17.21903         1.29422
O         12.78407        12.75312         0.45271
H         13.24823        11.88990         0.61559
O         14.83002         0.91394        -1.91742
H         14.78559         1.77002        -2.40020
O         16.48907        10.14924        -2.52435
H         17.21800        10.72066        -2.85082
O          6.89364        12.63209        -2.90331
H          7.56741        13.08845        -3.45665
O          4.67625        18.21021        -0.64676
H          4.63125        19.12259        -1.00075
O         15.53541        17.66710        -2.48803
H         14.82962        17.54960        -3.16999
O         12.49066         8.29926        -3.15366
H         12.34401         7.34282        -3.38870
O         13.30055         3.61611         1.46302
H         12.43201         3.24622         1.72939
O         17.67002         4.10170        -2.05329
H         17.60961         3.16617        -2.34059
O          4.66111        13.70350         1.69379
H          4.38431        13.98206         2.59661
O         19.98949         5.47934        -1.77107
H         19.19737         5.02622        -2.15414
O         17.98223         2.56951         2.30987
H         18.76521         3.07148         2.65539
O         20.37156         3.95286         2.55114
H         20.24506         4.92170         2.64329
O         10.92376         7.49859         0.09624
H         10.87318         8.35302         0.58642
O          3.18053         7.77759        -2.29642
H          2.29563         7.35669        -2.36687
O          3.94711        14.88987        -1.63521
H          4.51327        14.96223        -2.43594
O         16.31970        19.98576        -1.42199
H         16.37663        19.25879        -2.08866
O         15.89553         6.34284        -2.18147
H         15.86011         5.39605        -2.46140
O         11.33693         5.97786        -3.14376
H         10.43118         5.96807        -3.56971
O          4.44220         4.47352        -1.73040
H          5.05235         4.53718        -2.51356
O          7.66248         9.19923         0.72374
H          7.54724         9.93938         1.36048
O          3.96488        11.01204         1.43936
H          4.82982        11.49102         1.50608
O         10.47997        16.72530        -3.01940
H         11.22295        16.68605        -3.66346
O         13.28277        12.70180        -3.15176
H         13.63852        12.00882        -3.76261
O         13.57019        15.34195         0.49023
H         13.30376        14.48938         0.92183
O         14.36807        10.53788         0.45504
H         14.99952        10.13802         1.09876
O         14.04240        10.36167        -3.18742
H         13.73363         9.45103        -3.42486
O         20.30772         9.52258         2.18801
H         19.59711         9.98233         2.69838
O         14.67410         5.94420         1.23785
H         14.04261         5.31525         1.66086
O          1.92010         4.62323        -1.00813
H          2.72578         4.12256        -1.30043
O         14.28864        18.07835         0.95496
H         13.77188        17.23666         0.90040
O          5.47711         5.94210         1.46066
H          6.45685         6.06277         1.49840
O         10.04706         9.07581        -2.97639
H          9.22316         9.33672        -3.44144
O          8.70904         5.97683        -3.39664
H          8.49921         5.00213        -3.49880
O          3.78614         2.98200         0.12268
H          3.08389         2.41008         0.49582
O          7.75803         1.11574        -1.49389
H          7.82284         1.63265        -2.35286
O          8.51242        18.06480         1.87176
H          7.87094        17.54045         2.41695
H          2.01740         4.27452         4.48605
H          1.28656         5.62375         2.53156
H          4.03805         2.85613         4.41219
H          0.19646         5.98145         0.33819
H          0.21978         8.38340         0.16817
H          0.50917        10.03152         1.08354
H          0.24442        12.34677         1.42851
H          0.52161        14.47924         1.70288
H          0.89533        16.78810         2.44067
H          2.47677        18.75657         2.78013
H          6.01141         1.95589         3.06149
H          4.30489        20.02589         1.75675
H          7.68867         0.96645         1.31224
H          6.60968        20.01584         1.09832
H          9.81620         0.30495        -0.14371
H          8.64875        20.17656        -0.30907
H         12.22667         0.25425        -0.53286
H         10.95788        20.36222        -1.20412
H         14.71370         0.25547         0.03880
H         13.36155        20.34858        -0.58219
H         17.04331         0.39022         0.73263
H         15.63624        20.24728         0.50033
H         19.57040         0.40599         0.79144
H         17.79626        20.24731         1.50367
H         21.70279         1.65044         1.00324
H         22.95546         3.80428         1.18917
H         23.13273         6.12919         0.48748
H         23.16997         8.22981         0.08323
H         22.94255        10.56973         0.80878
H         22.62282        12.29071         1.81819
H         22.39328        14.66439         2.24510
H         22.03033        16.34880         3.41452
H         20.17632        20.15154         2.57949
H         22.00514        18.79866         3.53318
