         237
 CSIRO Nanostructure Databank - Neutral Graphene Oxide Data Set
C        -11.07387         0.71369         0.20213
C         -9.98908         1.48892         0.91778
C         -8.68019         0.68752         1.06668
C         -7.37666         1.41414         0.92400
C         -6.15976         0.68155         0.62213
C         -4.98373         1.33015         0.25333
C         -3.73624         0.63010        -0.02695
C         -2.55812         1.33839        -0.24537
C         -1.24839         0.69033        -0.14246
C         -0.03691         1.39127        -0.61914
C          1.16729         0.64360        -0.79273
C          2.38741         1.37159        -1.18470
C          3.69144         0.61768        -1.29295
C          4.96776         1.39642        -1.14810
C          6.19767         0.62490        -0.61046
C          7.30687         1.43709        -0.07776
C          8.46303         0.76222         0.35384
C          9.70220         1.47644         0.49004
C         10.89380         0.71101         0.80221
C         -9.79713         2.88287         0.39311
C         -8.60960         3.58356         0.62281
C         -7.39103         2.81160         0.90173
C         -6.11921         3.53758         0.93085
C         -4.88518         2.77644         0.50060
C         -3.81121         3.55618        -0.16360
C         -2.57037         2.76956        -0.56411
C         -1.30743         3.50996        -0.68927
C         -0.08120         2.78149        -0.79715
C          1.18948         3.54436        -0.80402
C          2.46150         2.83669        -0.99784
C          3.64621         3.53120        -1.00010
C          4.91382         2.84057        -0.91303
C          6.05464         3.54440        -0.48543
C          7.26558         2.85108        -0.15395
C          8.47390         3.59378         0.18042
C          9.69889         2.86012         0.37238
C         -8.57278         4.99106         0.45278
C         -7.40248         5.81392         0.75576
C         -6.08229         5.03680         0.90198
C         -4.84645         5.74072         0.52152
C         -3.70292         5.00283         0.05089
C         -2.52921         5.65398        -0.37195
C         -1.35598         4.91066        -0.72986
C         -0.16477         5.65586        -1.19298
C          1.16634         5.02944        -0.97657
C          2.42638         5.79883        -1.11314
C          3.70723         5.01732        -1.31358
C          4.88961         5.71590        -0.69796
C          5.98094         4.99904        -0.30140
C          7.09287         5.64902         0.49441
C          8.42334         4.96970         0.31964
C         -7.29059         7.24822         0.45592
C         -6.06600         7.89275         0.54631
C         -4.84162         7.13528         0.52365
C         -3.51356         7.85189         0.52918
C         -2.42561         7.08571        -0.19576
C         -1.30332         7.79461        -0.53970
C         -0.18702         7.15231        -1.25423
C          1.14355         7.85072        -1.51489
C          2.40554         7.18918        -1.01222
C          3.57814         7.95817        -0.68853
C          4.91787         7.22550        -0.86311
C          6.08791         7.85558        -0.14811
C          7.12758         7.14203         0.34352
C         -5.95030         9.35672         0.56607
C         -4.77869        10.00973         0.40799
C         -3.53992         9.27575        -0.05005
C         -2.18522         9.91513         0.25406
C         -1.08373         9.14818         0.00741
C          0.34477         9.35574         0.28195
C          1.15324        10.38829        -0.16787
C          2.58277        10.35507        -0.29909
C          3.60366         9.36855        -0.43657
C          4.92984         9.98883        -0.30931
C          6.08532         9.30518        -0.13634
C        -11.05283        -0.61705        -0.00570
C         -9.87041        -1.44941         0.21374
C         -8.70754        -0.81153         0.89481
C         -7.40666        -1.56413         0.83568
C         -6.13341        -0.80914         0.66349
C         -5.02363        -1.53166        -0.08752
C         -3.69881        -0.81909         0.01900
C         -2.51766        -1.51330        -0.01721
C         -1.21245        -0.82158         0.00412
C          0.01268        -1.52611        -0.43974
C          1.19878        -0.76979        -0.73633
C          2.45404        -1.48767        -0.91093
C          3.67446        -0.82299        -1.01865
C          5.00169        -1.55938        -1.07073
C          6.07890        -0.79332        -0.32774
C          7.07752        -1.45575         0.48900
C          8.38525        -0.63780         0.75855
C          9.63055        -1.40097         0.96547
C         10.85863        -0.63927         1.00369
C         -9.79825        -2.68616        -0.34752
C         -8.52860        -3.49839        -0.46909
C         -7.48925        -3.06903         0.63361
C         -6.17742        -3.73177         0.28066
C         -4.96986        -3.01795         0.19889
C         -3.76385        -3.73657         0.08503
C         -2.48625        -2.98406         0.11189
C         -1.18741        -3.70279        -0.13507
C          0.00802        -2.91899        -0.54404
C          1.20904        -3.62284        -0.83960
C          2.43088        -2.93685        -0.89311
C          3.67901        -3.64323        -0.72643
C          4.88531        -2.97728        -0.59212
C          6.11187        -3.66883        -0.29261
C          7.09108        -2.98478         0.65535
C          8.47117        -3.63079         0.89957
C          9.61701        -2.77437         1.10081
C         -8.63760        -4.97104        -0.25185
C         -7.42110        -5.79073        -0.52644
C         -6.18235        -5.12886         0.10783
C         -4.97952        -5.85650         0.13203
C         -3.76027        -5.14601         0.09385
C         -2.45872        -5.93536         0.06916
C         -1.23790        -5.16153        -0.40479
C         -0.11254        -5.82396        -0.77073
C          1.16568        -5.09724        -0.96574
C          2.43013        -5.85594        -0.66137
C          3.62178        -5.05538        -0.31395
C          4.91017        -5.83561        -0.21955
C          6.11622        -5.04834        -0.42369
C          7.67458        -6.01275         0.75481
C          8.61050        -4.97611         1.20369
C         -7.48071        -7.27323        -0.26474
C         -6.34124        -7.99671        -0.11448
C         -5.00172        -7.36376         0.20564
C         -3.95918        -7.95502        -0.75116
C         -2.60027        -7.26090        -0.69883
C         -1.34671        -8.05051        -0.81555
C          0.00287        -7.34182        -0.83263
C          1.04218        -7.69591         0.23510
C          2.41904        -7.27415        -0.18583
C          3.56313        -8.00297        -0.08973
C          4.90083        -7.33377        -0.14356
C          6.03265        -7.94137         0.71154
C          7.08587        -7.08833         1.34878
C         -6.31380        -9.44876        -0.26314
C         -5.17109       -10.12960        -0.55002
C         -3.87612        -9.46929        -0.66452
C         -2.70971       -10.16678        -0.74535
C         -1.36468        -9.53201        -0.43265
C         -0.11496       -10.25766        -0.95876
C          1.10172       -10.11415        -0.44263
C          2.24939       -10.25114         0.20938
C          3.58739        -9.53023         0.02974
C          4.56246        -9.91211         1.13307
C          5.67038        -9.20313         1.41133
O          2.92908         0.97342        -2.50245
O          6.42288        -3.22081         1.93695
H          6.66945        -2.47414         2.53094
O         -8.86426        -0.21355         2.21981
O          0.78530        -7.97802         1.39601
O         -7.96096        -3.60772         1.87843
H         -7.49406        -3.12964         2.59997
O          0.60830        -7.73484        -2.08051
H         -0.01019        -7.47536        -2.79729
O         -2.16028        -6.28258         1.41329
O          2.02352        -5.62676        -2.04333
O          4.18432        -5.32554         0.99210
O        -10.52185         1.71209         2.26305
H        -10.19328         0.96188         2.81493
O         -2.00346        -7.50903        -2.03131
O         -5.12219         3.08048         1.90896
O         -1.35178        -9.57700         1.01168
H         -0.65795        -8.96373         1.36652
O         -7.11383        -5.68244        -1.97038
H         -6.32841        -6.25373        -2.14899
O          6.73976         5.41933         1.91239
H          6.76629         4.45096         2.06807
O         -3.66473         9.13625        -1.49211
H         -3.56177        10.02258        -1.89564
O         -0.45724         6.34351        -2.45208
O         -1.61725        -3.38460         1.23380
O         -4.53131        -7.63462        -2.05838
H         -3.80365        -7.76899        -2.71096
O          6.00866        -8.03334        -0.75714
O         -6.76373         5.54138         2.07597
O         -5.41116        -1.44308        -1.50056
H         -6.23194        -1.98018        -1.63522
O          5.38116        -1.65746        -2.47973
H          5.53622        -0.73273        -2.79678
O          7.31187        -5.73641        -0.59582
O          6.00192         0.94836        -2.07129
O         -3.60051         3.14875        -1.55000
O         -6.51224        -1.32480         1.97657
O          3.89215         5.04545        -2.77075
H          4.33518         5.90404        -2.98688
O          1.21255         4.43604         0.39506
O         -7.91760        -3.14402        -1.73148
H         -7.58078        -3.98203        -2.14643
O         -1.01782         0.04552         1.16574
O         -3.14268         7.97633         1.93182
H         -3.28881         7.11017         2.36696
O          1.22977         8.74782        -2.33857
O          7.34612        -0.82177         1.79073
O          0.55247        11.55955        -0.52290
H          1.20828        12.16773        -0.91610
O         -4.47725        -6.71817         2.44223
H         -3.49458        -6.47643         2.25462
O         -4.68968        -7.83363         1.59120
O          5.21002         7.40758        -2.30765
H          5.15867         8.37015        -2.49557
O          4.13489       -10.00764        -1.22521
H          4.99775        -9.54671        -1.36138
H         11.79139        -1.18440         1.21128
H         11.85189         1.24710         0.86485
H         10.62973         3.42376         0.53454
H          9.33975         5.52823         0.56398
H          7.97876         7.67378         0.79846
H          7.02325         9.84073         0.07203
H          4.96030        11.08759        -0.25531
H          2.99399        11.37978        -0.37384
H          0.87100         8.46361         0.65919
H         -2.11162        10.92202         0.68955
H         -4.75401        11.10964         0.46828
H         -6.86794         9.92682         0.77943
H         -8.20788         7.82513         0.26505
H         -9.48237         5.49164         0.08735
H        -10.70110         3.44366         0.10895
H        -11.99103         1.27542        -0.03308
H        -11.92464        -1.10870        -0.46487
H        -10.67553        -3.05851        -0.90060
H         -9.29475        -5.29618         0.57071
H         -8.42300        -7.79436        -0.49620
H         -7.27112        -9.98914        -0.20679
H         -5.20414       -11.22432        -0.66243
H         -2.75632       -11.26810        -0.71256
H         -0.22919       -10.87727        -1.86693
H          2.28408       -11.08185         0.94323
H          4.37005       -10.84155         1.69186
H          6.34426        -9.53996         2.21479
H          7.31759        -7.31608         2.39926
H          9.56102        -5.30261         1.66090
H         10.57893        -3.27745         1.29200
