         324
 CSIRO Nanostructure Databank - Neutral Graphene Oxide Data Set
C          1.19763         1.98846        -0.18136
C          1.15916         3.38522        -0.24056
C          2.40769         1.31490        -0.05756
C          2.35980         4.12912        -0.20641
C          1.34909         6.30519         0.36954
C          1.39306         7.70185         0.47189
C          2.38016         5.58222        -0.20574
C          2.51201         8.44369         0.01246
C          1.47162        10.61732         0.65367
C          1.50371        12.02491         0.83522
C          2.50470         9.90296         0.07088
C          2.57203        12.79589         0.41166
C          1.82226        15.05601         1.32777
C          1.87850        16.47222         1.41292
C          2.80733        14.15410         0.87488
C          2.95792        17.32711         1.08707
C          2.86136        18.71636         0.71300
C          3.63448         2.03117         0.00956
C          3.59143         3.45371        -0.08195
C          4.86851         1.33524         0.15088
C          4.83085         4.24522         0.03566
C          3.54953         6.28223        -0.85846
C          3.58623         7.77254        -0.59477
C          4.88520         5.62878        -0.50200
C          4.76450         8.49288        -1.06457
C          3.57431        10.64606        -0.62749
C          3.57171        12.16816        -0.49116
C          4.86171         9.95657        -0.92376
C          4.85288        12.87124        -0.82881
C          4.16857        14.59887         0.73802
C          4.26442        16.78061         0.93455
C          5.06591        14.17743        -0.20453
C          5.23549        17.31045         0.11785
C          3.93696        19.38562         0.17068
C          5.17416        18.71769        -0.16959
C          6.11136         2.00424         0.25040
C          6.11185         3.49648         0.22990
C          7.31923         1.33843         0.39436
C          7.34377         4.15001        -0.29582
C          6.08062         6.27936        -0.71011
C          6.10423         7.70255        -1.15688
C          7.36613         5.61350        -0.52368
C          7.34471         8.46572        -1.03956
C          6.08100        10.60141        -1.04712
C          6.13979        12.08157        -1.10849
C          7.34911         9.86697        -1.07497
C          7.43851        12.78627        -0.95343
C          6.22188        14.98115        -0.68866
C          6.29515        16.48011        -0.49649
C          7.47702        14.20415        -0.90942
C          7.55221        17.17770        -0.74214
C          6.34317        19.33633        -0.61867
C          7.55535        18.57729        -0.82009
C          8.58536         2.10946         0.65136
C          8.61726         3.39567        -0.15584
C          9.84922         1.32347         0.47026
C          9.88826         4.13974        -0.24356
C          8.57814         6.25654        -0.67800
C          8.62368         7.67077        -1.21986
C          9.85074         5.55668        -0.54315
C          9.86026         8.45169        -0.86666
C          8.60656        10.58975        -1.04849
C          8.64618        12.04327        -1.01772
C          9.83093         9.85064        -0.98377
C          9.87791        12.76848        -1.03686
C          8.69320        14.90470        -1.00130
C          8.69019        16.38336        -1.32620
C          9.91276        14.18273        -1.02875
C          9.99904        17.07456        -1.08863
C          8.79885        19.23379        -1.11886
C          9.99903        18.52031        -1.17679
C         11.06301         1.99206         0.28675
C         11.05689         3.43118        -0.01956
C         12.29165         1.28523         0.30721
C         12.33265         4.07614        -0.32285
C         11.04667         6.28915        -0.57892
C         11.07931         7.73575        -0.61467
C         12.33454         5.58699        -0.60121
C         12.29279         8.40490        -0.36481
C         11.12455        10.55822        -1.09754
C         11.15467        12.04989        -1.14310
C         12.40229         9.83903        -0.67912
C         12.44605        12.78558        -0.76647
C         11.17307        14.90540        -0.86814
C         11.16345        16.36763        -0.87694
C         12.34541        14.23956        -0.56867
C         12.43096        17.07303        -0.81106
C         11.25663        19.17991        -1.30564
C         12.45244        18.48194        -1.17138
C         13.56530         1.96963         0.46820
C         13.58281         3.48715         0.20729
C         14.86259         1.30750         0.40867
C         14.85552         4.15560        -0.13198
C         13.57825         6.30162        -0.30689
C         13.53108         7.70528        -0.12073
C         14.81928         5.60603        -0.25393
C         14.71099         8.42305         0.18136
C         13.53376        10.62025        -0.15245
C         13.56576        12.01430        -0.15683
C         14.56994         9.85628         0.63785
C         14.64849        12.71911         0.47206
C         13.48980        14.99270         0.00920
C         13.60224        16.41108        -0.45821
C         14.59912        14.19029         0.68416
C         14.88427        17.06474        -0.74437
C         13.70602        19.16454        -1.27729
C         14.89954        18.52040        -1.01958
C         16.04494         2.02284         0.26472
C         16.03758         3.44436        -0.06331
C         17.30559         1.36629         0.45403
C         17.30619         4.13502        -0.37903
C         16.01100         6.34364        -0.12220
C         15.97453         7.75745         0.13402
C         17.29960         5.65143        -0.28620
C         17.17983         8.45548         0.36500
C         15.87160        10.60468         0.73426
C         15.84051        11.99287         0.80745
C         17.11850         9.82892         0.89213
C         17.05524        12.73718         1.23001
C         15.86081        14.87175         1.09953
C         15.82298        16.30776         1.52778
C         17.04965        14.21115         1.18174
C         17.08890        17.03198         1.22972
C         16.17022        19.19980        -1.13203
C         17.24687        18.95800        -0.28225
C         18.52816         2.01816         0.35727
C         18.63196         3.37957        -0.29894
C         19.73644         1.36220         0.67404
C         19.77979         4.20478         0.26538
C         18.55518         6.36094         0.04354
C         18.50849         7.86915        -0.05166
C         19.73543         5.67073         0.26707
C         19.72844         8.56662         0.50810
C         18.41754        10.55942         1.15740
C         18.38479        12.04443         1.36725
C         19.71007         9.92214         0.81957
C         19.65666        12.81860         1.24622
C         18.31230        14.91091         1.67654
C         18.29168        16.36544         1.27743
C         19.62644        14.22191         1.30078
C         19.53883        17.05944         1.20372
C         18.54867        19.45993        -0.54784
C         19.67579        19.13156         0.21978
C         20.96736         2.05612         0.68550
C         20.92332         3.51609         0.60021
C         22.18765         1.35910         0.82387
C         22.16673         4.24969         0.87491
C         20.95966         6.42042         0.50446
C         20.95614         7.83907         0.56310
C         22.19635         5.71148         0.63910
C         22.16233         8.57019         0.83059
C         20.91847        10.68294         1.02011
C         20.88639        12.09409         1.16215
C         22.15779         9.95011         1.00650
C         22.13005        12.88718         1.54473
C         20.84374        15.00067         1.14410
C         20.77297        16.44874         1.04787
C         22.09260        14.33347         1.08568
C         22.01374        17.28564         1.07518
C         21.01762        19.39352        -0.04870
C         22.08879        18.69407         0.59742
C         23.45061         2.00294         0.83380
C         23.45062         3.48302         0.93733
C         24.67952         1.34510         0.82570
C         24.68968         4.19166         0.50709
C         23.40317         6.38260         0.70484
C         23.43571         7.82640         0.93728
C         24.67562         5.68959         0.45736
C         24.76009         8.54903         0.78817
C         23.45469        10.66257         1.10802
C         23.45369        12.16559         1.24821
C         24.66506        10.00222         0.58189
C         24.60398        12.89332         0.66661
C         23.31694        15.01629         0.84426
C         23.35480        16.49779         0.96609
C         24.50838        14.30870         0.53124
C         24.56210        17.25143         0.61905
C         23.33481        19.33314         0.61108
C         24.56430        18.63768         0.67817
C         25.93919         2.04521         0.76193
C         25.96518         3.46523         0.60479
C         27.17295         1.36498         0.76348
C         27.15236         4.16434         0.38058
C         25.95780         6.42759         0.46832
C         26.00154         7.80559         0.43778
C         27.19121         5.64517         0.37065
C         27.21177         8.54466         0.09411
C         25.81786        10.72213         0.31165
C         25.78142        12.18117         0.31058
C         27.07703        10.00774         0.14263
C         26.97148        12.89658        -0.06819
C         25.69393        15.03906         0.02664
C         25.74712        16.54928         0.10455
C         26.98435        14.34062        -0.08648
C         27.05827        17.21613         0.22285
C         25.84094        19.43679         0.54371
C         27.09908        18.59836         0.55748
C         28.37403         2.03969         0.46377
C         28.37043         3.45004         0.23036
C         29.60169         1.31473         0.27574
C         29.48492         4.08689        -0.41790
C         28.41590         6.37306        -0.24980
C         28.32445         7.85159        -0.45716
C         29.38060         5.43739        -0.89985
C         29.45396         8.53477        -1.12804
C         28.20152        10.82808         0.12918
C         28.17363        12.19603        -0.24458
C         29.90323         9.80558        -0.70359
C         29.36764        12.87877        -0.81524
C         28.17320        15.05185        -0.17874
C         28.24560        16.47651         0.06407
C         29.41167        14.36996        -0.61412
C         29.51941        17.11422         0.27682
C         28.31967        19.20307         0.80579
C         29.53880        18.47491         0.70822
C         30.66097         1.90912        -0.34969
C         30.57456         3.26268        -0.82721
C         31.48993         3.73777        -1.79356
C         30.15966         5.74514        -2.02319
C         30.12931         8.07276        -2.28786
C         31.22338         4.92663        -2.45379
C         31.05756         8.85691        -2.98531
C         30.72305        10.67716        -1.43784
C         30.64798        12.17272        -1.22779
C         31.31447        10.17704        -2.60501
C         31.90415        12.92172        -0.98604
C         30.75084        15.06896        -0.49608
C         30.76235        16.41961         0.12984
C         31.95044        14.20294        -0.55891
C         31.95145        17.05433         0.47702
C         30.77570        19.09614         1.02917
C         31.95649        18.38641         0.93775
O          3.01877        11.51673        -1.66877
O         25.44373        15.87745        -1.17317
O         29.43283        10.28845         0.52323
O         12.46267         4.58450        -1.67643
O         15.94025        16.39646        -0.86616
O         14.85066        16.85372         2.02912
O         13.46081        14.70681         1.46539
O         17.28815         4.94110        -1.60547
O         22.80821        16.98367         2.24665
O          4.57226        15.60377         1.62062
O         28.29811         6.11992         1.19019
O          5.30251         7.99236        -2.34553
O         19.43804        18.42481         1.40950
O          5.49161         4.13751         1.37540
O         24.24419         8.17898         2.12374
O         22.82963         3.94696         2.17605
O         17.74575         9.85919         2.25482
O         29.67828        12.63024        -2.23573
O         24.54723         4.86167        -0.79674
O         16.92852        18.37626         0.96613
O         17.59321        12.34938         2.56529
O          7.89047         3.36194        -1.42149
O         12.09228        12.49973        -2.16485
O         30.00221        15.06869        -1.75734
O         29.84993         6.83179        -2.85325
O         12.02686        10.01521        -2.10068
O          5.32207        12.68752        -2.17670
O         13.49548         3.01370         1.56037
O          5.82755        15.84785        -1.82460
O         23.79173        11.31764         2.39962
O         18.25827        14.89860         3.13142
H         18.13090        13.95498         3.40059
O         18.58720         8.16552        -1.50944
H         17.97061         7.55251        -1.96741
O         14.05009         9.77721         2.03061
H         14.82132         9.66674         2.62845
O         22.02795        13.00944         2.99724
H         22.51358        12.23864         3.37848
O         25.80931        20.19629        -0.68181
H         25.84637        19.56496        -1.43001
O          8.43469        16.43681        -2.77704
H          7.49336        16.15629        -2.89826
O          8.69740         7.47662        -2.68191
H          8.84730         8.35414        -3.09476
O          8.55874         2.55120         2.06022
H          8.53017         1.75137         2.62626
O         19.02346         3.07091        -1.67049
H         18.68706         3.80999        -2.22983
O          3.37462         6.07972        -2.29934
H          4.05077         6.64917        -2.74471
H          0.25924         1.41845        -0.22885
H          0.19599         3.90356        -0.34301
H          2.42585         0.21716        -0.00237
H          0.48687         5.77147         0.79515
H          0.53650         8.21630         0.92416
H          0.62565        10.08401         1.10700
H          0.71829        12.48324         1.45272
H          0.81118        14.63604         1.45539
H          0.90614        16.96231         1.58432
H          1.91042        19.24765         0.86703
H          4.85127         0.23590         0.19348
H          3.84307        20.45683        -0.06080
H          7.33781         0.23786         0.42369
H          6.37059        20.42474        -0.77401
H          9.85296         0.24654         0.70009
H          8.81579        20.33021        -1.21022
H         12.27783         0.18547         0.30288
H         11.27781        20.26576        -1.48207
H         14.90241         0.21106         0.48755
H         13.69891        20.23935        -1.51353
H         17.29069         0.31895         0.79332
H         16.29264        19.95354        -1.92628
H         19.71524         0.29543         0.94472
H         18.69593        20.00559        -1.49039
H         22.15601         0.25930         0.85794
H         21.27818        20.17997        -0.77305
H         24.69973         0.24473         0.81804
H         23.37559        20.40668         0.37561
H         27.19157         0.27436         0.90630
H         25.88456        20.18881         1.37415
H         29.64416         0.25423         0.56262
H         28.35568        20.26876         1.07576
H         31.56860         1.33129        -0.57755
H         32.33531         3.10602        -2.10032
H         31.83434         5.25036        -3.30615
H         31.51562         8.44302        -3.89252
H         31.95067        10.82119        -3.22620
H         32.83835        12.34023        -1.02004
H         32.92551        14.63662        -0.29172
H         32.91005        16.52840         0.37008
H         30.77800        20.14451         1.35964
H         32.91164        18.86370         1.19633
