         640
 CSIRO Nanostructure Databank - Neutral Graphene Oxide Data Set
C         23.00185        27.26575        -0.28659
C         22.99734        28.67237        -0.31900
C         22.97411        31.68056        -0.25253
C         22.97030        33.03125        -0.03263
C         22.94101        35.96632         0.31942
C         22.93897        37.33764         0.39881
C         22.94891        40.26473         0.61184
C         22.95863        41.64158         0.64588
C         22.96862        44.56896         0.58589
C         22.96934        45.93944         0.48373
C         25.44863        24.46088        -0.11021
C         24.25123        25.12973        -0.21707
C         25.41192        27.24493         0.20512
C         24.20674        26.54809        -0.09599
C         25.32570        28.68955         0.45360
C         24.11437        29.41123         0.03211
C         25.33441        31.61592         0.50599
C         24.25026        30.87972        -0.33870
C         25.46698        33.07476         0.04182
C         24.15541        33.80164         0.16929
C         25.38580        35.92595         0.52668
C         24.15855        35.21380         0.34980
C         25.38169        37.35483         0.59372
C         24.14929        38.07644         0.51516
C         25.39193        40.22248         0.58867
C         24.15734        39.51548         0.57541
C         25.39911        41.65401         0.60269
C         24.17478        42.37474         0.63015
C         25.41728        44.51950         0.57662
C         24.18704        43.82370         0.61031
C         25.42975        45.95411         0.46836
C         24.19146        46.66081         0.40154
C         25.38608        48.76024         0.16201
C         24.19917        48.07500         0.26410
C         27.98532        23.04593        -0.09076
C         27.93770        24.45107         0.08162
C         26.67566        25.15222         0.09593
C         27.89995        27.29719         0.42896
C         26.65273        26.56848         0.27328
C         27.90567        28.70092         0.52665
C         26.64107        29.44139         0.63191
C         27.85077        31.57649         0.65504
C         26.66824        30.90643         0.49934
C         27.84094        33.02408         1.08958
C         26.62642        33.79334         0.65516
C         27.87645        35.87849         0.81839
C         26.63581        35.18664         0.67618
C         27.88217        37.36001         1.05661
C         26.60278        38.08036         0.70969
C         27.87789        40.20923         0.55731
C         26.62953        39.48841         0.62386
C         27.87563        41.64958         0.50738
C         26.64552        42.36791         0.57574
C         27.90325        44.48155         0.53227
C         26.66527        43.79168         0.57198
C         27.94831        45.97705         0.72456
C         26.64986        46.67473         0.39349
C         27.88137        48.79082         0.03494
C         26.63900        48.07578         0.21557
C         27.95473        50.18185         0.02924
C         30.41905        23.06233        -0.08939
C         29.18719        22.37404        -0.17565
C         30.40832        24.46980         0.12612
C         29.16307        25.16707         0.20874
C         30.37133        27.29863         0.53938
C         29.15272        26.59295         0.39373
C         30.36870        28.73258         0.65284
C         29.12683        29.43822         0.58290
C         30.33676        31.57800         0.77269
C         29.11671        30.86319         0.68488
C         30.34332        33.02946         0.78900
C         29.13126        33.74493         0.81063
C         30.36425        35.84942         0.65745
C         29.11570        35.16565         0.76865
C         30.36214        37.28450         0.34488
C         29.06981        38.03835         0.41999
C         30.34770        40.15621         0.33425
C         29.10900        39.50998         0.47172
C         30.36697        41.63242         0.02855
C         29.08983        42.35629         0.37823
C         30.38947        44.47790         0.26808
C         29.11463        43.76748         0.41731
C         30.35680        45.90910         0.02664
C         29.16193        46.60532         0.09105
C         30.40108        48.74837        -0.33020
C         29.08691        48.01199        -0.42489
C         30.39589        50.20015        -0.34360
C         29.15282        50.86824        -0.20276
C         32.92723        20.30482        -0.61686
C         31.72096        20.97599        -0.48636
C         32.90093        23.06884        -0.05115
C         31.67704        22.36022        -0.21284
C         32.89067        24.47912         0.21748
C         31.64491        25.18138         0.26987
C         32.84616        27.28116         0.69700
C         31.62958        26.58833         0.50575
C         32.82117        28.70419         1.20277
C         31.57262        29.45590         0.83112
C         32.82641        31.59883         0.87506
C         31.57729        30.86890         0.83522
C         32.82896        33.01602         0.81115
C         31.58935        33.73202         0.77500
C         32.83669        35.89269         0.62812
C         31.58919        35.16007         0.69830
C         32.83862        37.31778         0.51510
C         31.62063        38.03532         0.40879
C         32.83801        40.18707         0.32125
C         31.58132        39.44828         0.36350
C         32.83968        41.57077         0.28938
C         31.58064        42.32789         0.62926
C         32.84778        44.48209         0.07058
C         31.59336        43.79329         0.25398
C         32.83655        45.89951        -0.16543
C         31.60101        46.59836        -0.25115
C         32.83868        48.75651        -0.81992
C         31.58070        48.01974        -0.41606
C         32.88650        50.11372        -0.10718
C         31.62436        50.91368        -0.36943
C         32.87225        53.03535        -0.55866
C         31.69722        52.33142        -0.46695
C         35.45312        18.92167        -1.10560
C         35.41922        20.26842        -0.65521
C         34.15621        20.97092        -0.46088
C         35.35740        23.05917         0.12575
C         34.14228        22.36643        -0.14718
C         35.35743        24.44119         0.41588
C         34.11472        25.17413         0.42794
C         35.29784        27.31704         0.90454
C         34.08491        26.59296         0.66408
C         35.32175        28.74319         0.97888
C         34.09530        29.46925         0.95191
C         35.30747        31.61814         0.88521
C         34.07306        30.88027         0.90306
C         35.30426        33.04490         0.84794
C         34.06713        33.75288         0.78801
C         35.31027        35.90749         0.68027
C         34.06480        35.17945         0.69670
C         35.31817        37.32653         0.61393
C         34.08500        38.04833         0.49628
C         35.32409        40.19758         0.49124
C         34.08637        39.45139         0.36151
C         35.30540        41.59679         0.48889
C         34.10185        42.29313        -0.06641
C         35.31232        44.48031         0.11082
C         34.07315        43.78584         0.12726
C         35.31975        45.89496        -0.10544
C         34.08961        46.59183        -0.29210
C         35.33433        48.66650        -0.65927
C         34.12166        47.98710        -0.57926
C         35.30936        50.11346        -1.07854
C         34.17809        50.87385        -0.40174
C         35.38877        52.99792        -1.15173
C         34.17880        52.36336        -0.58031
C         35.44494        54.40481        -1.36290
C         37.89039        18.93197        -1.13018
C         36.64907        18.26907        -1.30953
C         37.88281        20.28468        -0.67547
C         36.63977        20.92600        -0.41137
C         37.91659        23.03168         0.35251
C         36.61029        22.28078         0.18236
C         37.84648        24.50368         0.51563
C         36.59560        25.12826         0.67866
C         37.85505        27.33052         1.10944
C         36.53483        26.54557         1.06960
C         37.81533        28.79241         0.97330
C         36.56474        29.47870         0.99826
C         37.76458        31.65070         1.00627
C         36.54270        30.90972         0.94333
C         37.78045        33.05550         0.93298
C         36.54347        33.77305         0.84431
C         37.79161        35.91672         0.70679
C         36.54293        35.19040         0.74858
C         37.78214        37.33615         0.60527
C         36.56378        38.05359         0.61550
C         37.79430        40.24119         0.72181
C         36.56032        39.48433         0.62021
C         37.77034        41.63081         0.85739
C         36.47761        42.39681         0.97023
C         37.74676        44.50654         0.42462
C         36.54620        43.80219         0.39509
C         37.78142        45.90524         0.11737
C         36.56289        46.59771        -0.13758
C         37.80486        48.72215        -0.39882
C         36.57587        48.00497        -0.40315
C         37.81320        50.15005        -0.70250
C         36.61270        50.84255        -0.91721
C         37.85153        52.90630        -1.39757
C         36.61228        52.24316        -1.17754
C         37.83026        54.24678        -2.08555
C         36.60092        55.03690        -1.73064
C         40.40809        16.30104        -2.12322
C         39.21547        16.88981        -1.76972
C         40.32277        19.05557        -1.48623
C         39.13568        18.28049        -1.45861
C         40.30994        20.39882        -1.02139
C         39.13405        21.00151        -0.55515
C         40.33755        23.12806        -0.19140
C         39.16406        22.38637        -0.12587
C         40.30680        24.62789        -0.09059
C         39.06042        25.24794         0.49329
C         40.29665        27.38839         0.67349
C         39.08830        26.62988         0.73296
C         40.29464        28.78599         0.82911
C         39.04229        29.47773         0.94316
C         40.36000        31.69474         1.07436
C         39.01571        30.91664         1.20017
C         40.27071        33.10409         0.76877
C         39.03798        33.78434         0.85196
C         40.29229        35.93863         1.05551
C         39.01259        35.20300         0.76303
C         40.30319        37.37791         0.64355
C         39.04226        38.07640         0.23576
C         40.26407        40.20473         0.69723
C         39.05116        39.53503         0.63298
C         40.31044        41.64392         1.01876
C         38.99989        42.38722         1.12257
C         40.28556        44.53079         0.56304
C         38.98386        43.91667         1.07718
C         40.26960        45.93751         0.28049
C         39.02201        46.62613         0.11761
C         40.26885        48.74648        -0.12704
C         39.01929        48.03494        -0.11977
C         40.24675        50.22778        -0.22124
C         39.02759        50.88290        -0.71343
C         40.33027        52.96621        -1.18599
C         39.06162        52.24758        -1.09604
C         40.32857        54.34049        -1.63095
C         39.12912        55.00922        -1.98087
C         40.36357        57.06486        -2.40357
C         39.16755        56.35586        -2.37105
C         42.81028        16.51674        -2.73952
C         41.59388        17.07920        -2.26928
C         42.69165        19.27047        -2.22295
C         41.55157        18.46891        -1.96873
C         42.56477        20.76117        -2.06689
C         41.64637        21.09078        -0.90449
C         42.74219        23.32614        -0.75911
C         41.56742        22.57607        -0.67631
C         42.86410        24.38678         0.33755
C         41.57510        25.17725         0.53559
C         42.82994        27.39671         0.55578
C         41.57713        26.65462         0.71810
C         42.79653        28.79907         0.57803
C         41.54994        29.52400         0.74665
C         42.79512        31.65877         0.55503
C         41.57107        30.91915         0.73990
C         42.78324        33.06367         0.48635
C         41.48904        33.79493         0.21121
C         42.75912        35.92705         0.64806
C         41.54663        35.23880         0.61267
C         42.76609        37.36902         0.75086
C         41.51019        38.06906         0.65930
C         42.73632        40.22115         0.62328
C         41.51975        39.51041         0.60408
C         42.71770        41.66863         0.52930
C         41.55080        42.38270         0.69673
C         42.74430        44.52998         0.30736
C         41.49413        43.82678         0.51797
C         42.74281        45.94727         0.16438
C         41.49681        46.64465         0.09874
C         42.74954        48.79391        -0.47820
C         41.47708        48.06474        -0.08993
C         42.83441        50.24608         0.03464
C         41.52750        51.01022        -0.19909
C         42.79285        53.00434        -1.06310
C         41.53885        52.34931        -0.83884
C         42.80417        54.36759        -1.47911
C         41.56719        55.04613        -1.71250
C         42.82550        57.11189        -2.19177
C         41.57651        56.42018        -2.09500
C         43.90762        17.31494        -2.98725
C         44.96381        19.60492        -3.14791
C         43.85154        18.72367        -2.78030
C         45.02180        20.96348        -2.69294
C         43.88422        21.51536        -1.98992
C         44.94458        23.74132        -2.06308
C         43.89297        22.81561        -1.50278
C         45.34444        24.59681         0.16973
C         44.09860        25.25121         0.29666
C         45.27015        27.39557         0.29066
C         44.04351        26.66958         0.34341
C         45.25922        28.81129         0.41945
C         44.02763        29.52791         0.50239
C         45.27207        31.66880         0.51315
C         44.03659        30.94467         0.52044
C         45.24296        33.07838         0.50018
C         44.00834        33.79151         0.50759
C         45.23833        35.95225         0.74154
C         44.01393        35.22280         0.56842
C         45.22514        37.37946         0.83574
C         43.98104        38.09043         0.76979
C         45.22012        40.24406         0.78271
C         43.98004        39.52187         0.71098
C         45.23003        41.65080         0.58729
C         43.98809        42.34428         0.08648
C         45.20720        44.53830         0.39392
C         43.97552        43.83231         0.31678
C         45.21208        45.95369         0.31766
C         43.99686        46.65492         0.11215
C         45.24013        48.76819        -0.25674
C         44.02167        48.06346        -0.11995
C         45.23882        50.17838        -0.60680
C         44.04894        50.91726        -0.57414
C         45.26269        52.94756        -1.25338
C         44.03016        52.28973        -0.93480
C         45.27192        54.33953        -1.57299
C         44.04148        55.05792        -1.67200
C         44.00891        56.45176        -1.99813
C         47.01344        19.92738        -4.39864
C         45.96567        19.11102        -4.00322
C         47.10746        21.21628        -3.85331
C         46.18152        21.75112        -2.95252
C         47.64881        23.62015        -1.74502
C         46.33573        23.22926        -2.55865
C         47.69190        24.69789        -0.81830
C         46.51116        25.31159        -0.21286
C         47.72745        27.41229         0.21290
C         46.49646        26.70913         0.04991
C         47.70177        28.77453         0.56005
C         46.49061        29.51338         0.52376
C         47.73364        31.60889         0.87653
C         46.51346        30.93935         0.62889
C         47.78001        33.06660         0.76666
C         46.49473        33.84252         0.49311
C         47.70105        35.96672         1.08921
C         46.47888        35.27497         0.79336
C         47.66315        37.38648         1.20043
C         46.45011        38.08507         1.01034
C         47.68638        40.22018         1.02484
C         46.44663        39.53266         1.00604
C         47.72483        41.72349         1.05882
C         46.42242        42.39577         0.68567
C         47.73554        44.48413         0.62849
C         46.43200        43.78967         0.56078
C         47.77014        46.00358         0.55910
C         46.45205        46.77870         0.62777
C         47.69555        48.70781        -0.47400
C         46.47931        48.09146        -0.11258
C         47.69579        50.08050        -0.90317
C         46.47852        50.82062        -0.92202
C         47.73116        52.87144        -1.49170
C         46.48710        52.21284        -1.22660
C         47.70611        54.27239        -1.78035
C         46.52940        54.97131        -1.82355
C         50.33233        21.56340        -3.56810
C         49.12168        22.21732        -3.31361
C         50.16498        23.53503        -1.60323
C         48.92780        23.10775        -2.21288
C         50.18048        24.76055        -0.86357
C         48.94027        25.37980        -0.54266
C         50.19271        27.35498         0.25786
C         48.96447        26.69151         0.03747
C         50.23682        28.69363         0.86193
C         48.91604        29.44687         1.02494
C         50.18988        31.57365         1.24743
C         48.95490        30.91186         1.08963
C         50.20604        32.99784         1.60622
C         48.87800        33.79885         1.43054
C         50.15934        35.90855         1.76413
C         48.89781        35.24735         1.37486
C         50.16751        37.41913         1.80848
C         48.83422        38.17070         1.76122
C         50.16452        40.21007         0.97229
C         48.90847        39.54448         1.15354
C         50.18555        41.56102         0.57142
C         48.88220        42.24241         0.20535
C         50.15871        44.40845         0.13658
C         48.95547        43.74195         0.29526
C         50.16983        45.84197        -0.09106
C         48.97838        46.61687        -0.02523
C         50.12006        48.60939        -0.95396
C         48.93562        47.97451        -0.46165
C         50.12883        49.95543        -1.33086
C         48.92164        50.72351        -1.25101
C         50.22257        52.78694        -1.65459
C         48.93949        52.12981        -1.49214
C         51.45653        21.82589        -2.79799
C         52.65002        23.39597        -1.31734
C         51.41123        22.88153        -1.86835
C         52.66574        24.71177        -0.77888
C         51.41935        25.40627        -0.57920
C         52.64734        27.46053         0.09933
C         51.42630        26.73955        -0.07069
C         52.68010        28.81280         0.52321
C         51.46577        29.49251         0.80101
C         52.66975        31.61494         1.15612
C         51.44224        30.88401         1.08809
C         52.66724        33.04628         1.33810
C         51.45283        33.76526         1.52106
C         52.65792        35.91308         1.54152
C         51.44773        35.18121         1.57688
C         52.65299        37.37777         1.48400
C         51.42757        38.10955         1.45866
C         52.64788        40.17732         0.92220
C         51.41437        39.48750         1.13049
C         52.64975        41.56830         0.59388
C         51.40626        42.26340         0.41256
C         52.63191        44.35388        -0.04409
C         51.40557        43.66459         0.11865
C         52.62228        45.74939        -0.39673
C         51.39134        46.43762        -0.50326
C         52.66710        48.49994        -1.27998
C         51.35481        47.79743        -1.05617
C         52.66076        50.01903        -1.26672
C         51.38214        50.59334        -1.92156
C         51.36569        52.09217        -1.79985
C         55.07207        23.27683        -1.02439
C         53.87919        22.69528        -1.41171
C         55.12618        24.62157        -0.56026
C         53.89793        25.32822        -0.45552
C         55.18036        27.43412         0.27965
C         53.90873        26.77981        -0.18391
C         55.14739        28.79107         0.87275
C         53.92244        29.49627         0.79932
C         55.15427        31.55065         1.24986
C         53.90808        30.89123         1.08514
C         55.13477        33.02450         1.08724
C         53.88401        33.77435         1.31456
C         55.15212        35.89641         1.43417
C         53.89628        35.18795         1.42299
C         55.14897        37.36762         1.78173
C         53.87464        38.08826         1.39154
C         55.11617        40.23023         1.03898
C         53.89022        39.48697         1.13084
C         55.12075        41.58424         0.68018
C         53.87808        42.27358         0.44900
C         55.10615        44.39182         0.04008
C         53.87262        43.66163         0.12308
C         55.09430        45.76791        -0.23025
C         53.87609        46.45048        -0.52602
C         55.14075        48.52844        -1.07082
C         53.91074        47.82025        -0.88814
C         55.08872        49.83697        -1.72294
C         53.94177        50.52536        -1.88300
C         57.62181        24.63887        -0.29031
C         56.36275        25.24187        -0.14465
C         57.54872        27.20370         0.99202
C         56.26344        26.48236         0.70849
C         57.50386        28.50863         1.54833
C         56.32518        29.38635         1.38901
C         57.54561        31.61892         1.82047
C         56.35350        30.82900         1.50506
C         57.73714        32.99209         1.16968
C         56.42257        33.77964         1.02372
C         57.61172        35.94847         1.36310
C         56.37071        35.23486         1.31249
C         57.60492        37.38679         1.28682
C         56.39920        38.08340         1.34635
C         57.64245        40.22272         0.90055
C         56.40676        39.58239         1.48091
C         57.62248        41.59262         0.55305
C         56.36691        42.31382         0.50829
C         57.60450        44.38269        -0.03325
C         56.36065        43.67919         0.20692
C         57.60751        45.77813        -0.26313
C         56.35075        46.57997        -0.04348
C         57.61942        48.54711        -0.97622
C         56.35859        47.90827        -0.76671
C         58.77128        25.19204         0.26779
C         59.91721        26.96385         1.57506
C         58.75330        26.45296         0.94900
C         59.82403        28.12352         2.33078
C         58.63126        28.86773         2.32292
C         59.71334        31.93013         2.99158
C         58.58581        31.16275         2.62542
C         59.81119        33.26381         2.59019
C         58.81952        33.83815         1.80229
C         60.05194        35.98408         1.53681
C         58.83903        35.25343         1.52866
C         60.05929        37.35411         1.30336
C         58.86419        38.07823         1.15631
C         60.04255        40.15548         0.45829
C         58.85253        39.49465         0.85862
C         60.03591        41.49863         0.15515
C         58.83709        42.25086         0.20092
C         60.03477        44.36765        -0.36124
C         58.83440        43.66664        -0.07742
C         60.02722        45.72676        -0.59582
C         58.81284        46.45414        -0.54489
C         58.80100        47.86755        -0.82758
O         54.84324        27.47455        -1.13374
O         37.22648        26.83789         2.33510
O         29.51165        37.53538        -0.87341
O         39.78368        31.32347         2.37195
O         34.57173        51.68244         0.72813
O         25.82011        29.05791         1.81913
O         51.98197        47.86354        -2.41571
O         50.21340        36.63962         3.05815
O         37.29936        22.32673         1.48868
O         44.60142        24.86209        -2.42842
O         47.46328        33.52549        -0.58485
O         40.70246        50.94238         1.01698
O         41.51119        25.67566         1.89066
O         49.30764        33.28409         2.72714
O         58.53156        29.90565         3.24840
O         39.72323        41.94001         2.34194
O         49.55195        28.77969         2.16272
O         48.16816        21.99357        -4.29992
O         55.74999        33.43388        -0.23309
O         47.99045        45.32198         1.83512
O         46.52976        23.95567        -3.79329
H         46.01115        24.79236        -3.70379
O         55.80140        26.00453         2.03392
H         56.49988        25.41720         2.39401
O         30.51154        41.73303        -1.42290
H         29.78167        41.22400        -1.83433
O         32.69525        49.01455        -2.24137
H         32.61580        48.15223        -2.69924
O         32.74571        28.57639         2.68166
H         33.56129        28.11271         2.97171
O         46.27227        47.17553         2.02541
H         46.69581        46.46740         2.56786
O         45.45682        23.26829         0.43951
H         44.63251        22.97775         0.90835
O         31.43687        42.25941         2.07802
H         32.22378        42.67859         2.48525
O         27.76513        32.95692         2.56855
H         28.53343        32.42932         2.87550
O         28.86757        47.86931        -1.89893
H         28.90637        48.77441        -2.27760
O         24.86467        31.65718         1.86958
H         25.05513        30.77277         2.26744
O         56.47209        39.84360         2.95371
H         57.37963        39.60609         3.24395
O         52.63080        50.43845         0.12356
H         53.47319        50.16375         0.54317
O         28.08272        37.54446         2.50492
H         27.35723        37.07381         2.96780
O         58.21515        32.72190        -0.18557
H         57.40808        32.66985        -0.75277
O         34.22517        42.15971        -1.55289
H         33.98059        41.23702        -1.78274
O         37.69133        53.93336        -3.53147
H         36.84945        53.44009        -3.63740
O         44.02319        42.18049        -1.39050
H         43.25543        42.67118        -1.75376
O         42.99874        23.54884         1.54896
H         42.72158        24.12722         2.30053
O         42.70779        48.89066        -1.93975
H         42.73592        47.98085        -2.30356
O         25.81679        33.07667        -1.40518
H         25.83544        34.01384        -1.69664
O         43.08931        50.20377         1.45205
H         42.22901        50.37578         1.90469
O         36.29212        42.61529         2.42346
H         37.04971        43.17244         2.72464
O         48.03551        42.09148         2.43044
H         47.54497        41.49344         3.03213
O         40.38132        25.11456        -1.47904
H         39.74620        24.60095        -2.02098
O         28.12875        46.18717         2.18087
H         27.41104        45.69825         2.63724
O         41.92042        21.26373        -3.27559
H         42.49074        21.03489        -4.03928
O         24.64259        30.78371        -1.73725
H         24.98137        31.67114        -2.01542
O         51.41668        50.29823        -3.33988
H         51.50989        49.31634        -3.42388
O         35.02250        50.16353        -2.51458
H         35.64447        49.55556        -2.96566
O         40.34421        35.94107         2.54586
H         41.15283        36.43603         2.80135
O         48.45099        38.43994         3.15494
H         48.82599        37.69605         3.68667
O         41.32680        33.76368        -1.26586
H         42.10248        34.22420        -1.65210
O         38.86139        44.34814         2.47132
H         39.46121        43.76036         2.99026
O         56.35970        46.93250         1.40103
H         57.20326        47.40400         1.57178
O         32.88797        49.81559         1.31104
H         33.30915        50.58563         1.75951
O         48.58628        41.88640        -1.17846
H         49.33998        42.17547        -1.73424
O         42.29225        20.56711         0.29605
H         41.81332        20.91812         1.07645
O         39.02797        38.07939        -1.25569
H         39.88932        38.44691        -1.54934
O         55.17086        37.42387         3.26122
H         55.39744        38.35946         3.49486
H         22.08066        26.71252        -0.51750
H         22.07873        29.18390        -0.63944
H         22.01293        31.17424        -0.42457
H         21.99567        33.54108        -0.00507
H         21.98148        35.44381         0.21243
H         21.97622        37.86332         0.35156
H         21.98042        39.74802         0.62238
H         21.99597        42.16777         0.67894
H         22.00470        44.04629         0.63393
H         22.01967        46.49273         0.45254
H         25.44483        23.36886        -0.21861
H         23.32094        24.57695        -0.41022
H         25.36474        49.84935         0.02259
H         23.24138        48.61333         0.22120
H         27.05916        22.46264        -0.16480
H         27.06205        50.78038         0.25998
H         29.16690        21.28544        -0.31211
H         29.12641        51.96540        -0.17015
H         32.90136        19.23010        -0.83772
H         30.79336        20.40398        -0.61392
H         32.82751        54.12486        -0.69488
H         30.76083        52.90514        -0.53198
H         34.51977        18.37842        -1.30081
H         34.54308        55.00857        -1.18597
H         36.62921        17.22919        -1.66147
H         36.59261        56.12586        -1.87623
H         40.44819        15.22310        -2.33719
H         38.31583        16.26334        -1.70154
H         40.37272        58.12068        -2.70965
H         38.24281        56.86489        -2.67471
H         42.86208        15.43524        -2.93142
H         42.82175        58.17972        -2.45419
H         44.83027        16.84784        -3.35708
H         44.94807        57.01006        -2.10478
H         47.76798        19.58162        -5.11615
H         45.90083        18.09130        -4.40324
H         48.64162        54.80461        -1.99553
H         46.56533        56.04112        -2.06671
H         50.38242        20.85778        -4.40750
H         50.26748        53.88422        -1.62091
H         52.39566        21.30062        -3.01273
H         52.31782        52.63165        -1.90656
H         55.99531        22.68447        -1.08914
H         53.89455        21.66080        -1.78143
H         56.02020        50.25254        -2.13220
H         53.94924        51.49041        -2.40959
H         57.71402        23.69553        -0.84765
H         57.65042        49.59963        -1.29035
H         59.72971        24.66241         0.17215
H         60.85536        26.39278         1.53495
H         60.67112        28.47419         2.93449
H         60.46004        31.48916         3.66351
H         60.63385        33.88157         2.97666
H         61.00614        35.45523         1.66132
H         61.02654        37.87242         1.25997
H         60.98494        39.59765         0.38510
H         60.98006        41.97533        -0.13716
H         60.99314        43.83393        -0.39478
H         60.96375        46.25706        -0.81984
H         59.75896        48.37614        -1.00646
