         324
 CSIRO Nanostructure Databank - Neutral Graphene Oxide Data Set
C          1.40112         2.08141         1.80102
C          1.28987         3.37895         1.38053
C          2.66199         1.44356         1.95576
C          2.48956         4.20991         1.24819
C          1.21221         6.38914         1.00786
C          1.23806         7.75460         0.97597
C          2.37287         5.56184         0.53146
C          2.40347         8.49647         0.61351
C          1.13569        10.75577         0.62497
C          1.14698        12.10145         0.42283
C          2.38284         9.98370         0.65478
C          2.33071        12.84776         0.05951
C          1.15885        15.08371         0.45948
C          1.22225        16.43877         0.54072
C          2.21789        14.30378        -0.19774
C          2.40261        17.18201         0.18147
C          2.45378        18.57913         0.44625
C          3.86658         2.00735         1.52549
C          3.83313         3.47430         1.21079
C          5.01782         1.13641         1.59187
C          4.93807         4.22326         0.55374
C          3.66265         6.35975         0.50983
C          3.62796         7.78890         0.39150
C          4.88137         5.66809         0.38957
C          4.82529         8.49607         0.04797
C          3.61491        10.74980         0.18115
C          3.53061        12.18796        -0.17858
C          4.73898         9.92424        -0.33464
C          4.72452        12.90253        -0.60818
C          3.50250        15.06902        -0.60166
C          3.56629        16.51712        -0.28652
C          4.74992        14.28404        -0.71301
C          4.77676        17.22850        -0.39804
C          3.63097        19.27940         0.32894
C          4.83775        18.62025        -0.05942
C          6.24208         1.29740         0.93413
C          6.12845         3.60983         0.24613
C          7.46820         0.57201         0.94798
C          7.32924         4.34086         0.00230
C          6.05987         6.39287        -0.01290
C          6.03020         7.80499        -0.19569
C          7.29560         5.73012        -0.21135
C          7.27239         8.48018        -0.51107
C          5.97207        10.64780        -0.76357
C          5.96384        12.14266        -0.92975
C          7.26261         9.95822        -0.47314
C          7.29901        12.87653        -0.98435
C          6.00269        15.02728        -1.01792
C          5.98456        16.56633        -0.92089
C          7.29954        14.33891        -0.87338
C          7.30030        17.29182        -0.78769
C          6.05332        19.33883        -0.09205
C          7.30454        18.70691        -0.30657
C          8.63796         1.35459         0.60724
C          8.55865         3.69823         0.19149
C          9.85873         1.08192         0.02678
C          9.77232         4.25756        -0.25255
C          8.52795         6.37983        -0.51890
C          8.49114         7.81513        -0.62927
C          9.71834         5.62606        -0.64849
C          9.76195         8.52126        -0.79080
C          8.55870        10.70361        -0.56049
C          8.56247        12.15417        -0.79057
C          9.79983         9.94999        -0.75626
C          9.76875        12.84890        -0.66424
C          8.51765        15.00020        -0.69690
C          8.56251        16.48743        -0.67664
C          9.73839        14.27843        -0.57993
C          9.77215        17.15230        -0.09086
C          8.50425        19.37993        -0.12606
C          9.77782        18.65705         0.04385
C         10.99157         2.00959        -0.11050
C         10.98888         3.46136        -0.25892
C         12.22743         1.35494        -0.15208
C         12.21262         4.16371        -0.46356
C         10.94962         6.28729        -1.20695
C         10.93781         7.79206        -0.99369
C         12.22829         5.59446        -0.74521
C         12.17985         8.51968        -1.24949
C         11.01613        10.68070        -0.87278
C         11.02692        12.10787        -0.71805
C         12.24031         9.97582        -1.05816
C         12.26642        12.78463        -0.76728
C         10.99155        14.98201        -0.26101
C         11.05578        16.45143        -0.25950
C         12.30395        14.22042        -0.38807
C         12.25705        17.13065        -0.20102
C         11.08338        19.31156        -0.04021
C         12.27028        18.59239        -0.10440
C         13.46876         2.03820        -0.22057
C         13.45884         3.46673        -0.38450
C         14.68719         1.34200        -0.12079
C         14.69717         4.15436        -0.46213
C         13.42754         6.28521        -0.77962
C         13.49535         7.72680        -1.15931
C         14.68577         5.59485        -0.57877
C         14.69388         8.51220        -0.83969
C         13.48002        10.65788        -1.06972
C         13.46868        12.08340        -1.00010
C         14.72650         9.90722        -0.92152
C         14.73637        12.83008        -1.14022
C         13.50751        15.03276        -0.60393
C         13.50662        16.41223        -0.39907
C         14.72888        14.33599        -1.01689
C         14.75687        17.14847        -0.33160
C         13.53073        19.27590        -0.12151
C         14.75304        18.60232        -0.18040
C         15.93010         2.02045        -0.16911
C         15.92844         3.45097        -0.34746
C         17.15986         1.33935        -0.06645
C         17.17695         4.13374        -0.43771
C         15.87856         6.29801        -0.56760
C         15.87244         7.76270        -0.39796
C         17.15466         5.58415        -0.68226
C         17.18651         8.51290        -0.24410
C         15.97700        10.61455        -0.70742
C         16.02436        12.08053        -0.93509
C         17.17953         9.96240        -0.47403
C         17.17969        12.81559        -0.27074
C         16.03319        15.07070        -0.75047
C         15.95832        16.46743        -0.31170
C         17.28232        14.29499        -0.56482
C         17.21100        17.17528         0.00387
C         15.99366        19.30799        -0.18362
C         17.23615        18.64715        -0.14626
C         18.40897         2.01344        -0.15834
C         18.40501         3.45782        -0.33924
C         19.61013         1.30176        -0.02927
C         19.64777         4.19806        -0.29683
C         18.46954         6.34828        -0.58470
C         18.46497         7.79965        -0.34391
C         19.68667         5.57851        -0.30035
C         19.65302         8.50484        -0.19070
C         18.45510        10.66153        -0.37694
C         18.48447        12.07157        -0.35920
C         19.65461         9.91963        -0.16653
C         19.73481        12.77297        -0.32691
C         18.46993        14.95006        -0.41198
C         18.50747        16.40980        -0.12032
C         19.73833        14.23209        -0.41469
C         19.72223        17.17606        -0.39861
C         18.48480        19.29647        -0.20576
C         19.72220        18.59029        -0.32246
C         20.91068         1.92420        -0.25637
C         20.93253         3.46324        -0.35052
C         22.17011         1.25761         0.09461
C         22.18367         4.15381         0.01900
C         20.97143         6.34914        -0.35925
C         20.89900         7.77481         0.30219
C         22.19507         5.58517         0.06448
C         22.20450         8.49353        -0.00955
C         20.91514        10.62991         0.27231
C         20.92904        12.06840        -0.18139
C         22.21306         9.89064        -0.01213
C         22.20833        12.75542        -0.36017
C         20.90962        14.95046        -0.47674
C         20.92096        16.41827        -0.67083
C         22.20948        14.25478        -0.50878
C         22.28439        17.19747        -0.54627
C         20.97852        19.29501        -0.29616
C         22.20950        18.64582        -0.27233
C         23.35683         1.94997         0.15002
C         23.35278         3.39237         0.16038
C         24.65817         1.19637         0.42859
C         24.63460         4.08292         0.38087
C         23.38102         6.32241         0.24474
C         23.40637         7.74150         0.10697
C         24.65460         5.59835         0.46779
C         24.67386         8.48447         0.24975
C         23.46135        10.60892        -0.03504
C         23.46580        12.07038         0.01913
C         24.66816         9.92822         0.02870
C         24.58777        12.76462         0.37968
C         23.36823        14.99984         0.08579
C         23.46155        16.46081        -0.10745
C         24.54116        14.23400         0.62510
C         24.63261        17.15031         0.23706
C         23.44626        19.30815         0.00734
C         24.63919        18.60725         0.18675
C         25.90275         1.94411        -0.01709
C         25.85660         3.34902        -0.02626
C         27.11425         1.32168        -0.35490
C         26.99113         4.09014        -0.40368
C         25.87100         6.28292        -0.04978
C         26.01194         7.75041         0.11618
C         26.81674         5.50175        -0.63576
C         27.28293         8.54627        -0.09034
C         25.95965        10.69722        -0.11398
C         25.85457        12.02364         0.61500
C         27.24181         9.93290         0.15327
C         27.13452        12.75844         0.88992
C         25.81469        15.00042         0.86518
C         25.83344        16.44367         0.54417
C         27.13050        14.26367         1.00642
C         27.07773        17.12681         0.56416
C         25.88027        19.28025         0.43460
C         27.06867        18.58694         0.57935
C         28.30903         2.06671        -0.54015
C         28.27043         3.48508        -0.49135
C         29.55760         1.42112        -0.91806
C         29.54360         4.23114        -0.28061
C         28.72429         6.56782        -0.61362
C         28.55983         7.92039        -0.16705
C         29.68255         5.70784        -0.17053
C         29.76960         8.58667         0.20393
C         28.45557        10.68417         0.36464
C         28.40786        12.06771         0.60823
C         29.73816         9.99437         0.40757
C         29.63572        12.85536         0.82209
C         28.37908        15.00018         0.65870
C         28.30222        16.42647         0.53811
C         29.57711        14.30949         0.53790
C         29.55545        17.22633         0.26053
C         28.30285        19.26039         0.91343
C         29.50053        18.59164         0.90900
C         30.72908         2.10180        -1.03663
C         30.85160         3.47493        -0.52041
C         32.04517         4.33156        -0.75529
C         30.96128         6.29352         0.40895
C         30.97443         7.82749         0.34005
C         32.10488         5.61690        -0.35560
C         32.14757         8.53015         0.60469
C         30.96296        10.67400         0.64406
C         30.95915        12.15045         0.86146
C         32.14730         9.93144         0.71133
C         32.16899        12.96017         0.55792
C         30.81729        15.01966         0.01942
C         30.82512        16.44964         0.53188
C         32.10334        14.26300         0.25355
C         31.89675        17.05462         1.10549
C         30.71737        19.17942         1.40689
C         31.85851        18.43998         1.51377
O          7.86644        10.44858         0.78084
O         17.88771         5.99819        -1.90610
O          5.08890        10.05709        -1.76395
O         26.36818        12.07803         1.96190
O          6.54787        12.46361        -2.22652
O         15.45583        14.95729        -2.11521
O          2.48220        14.69784        -1.57895
O         24.76733         4.78810         1.67753
O          9.62464        17.72641         1.23960
O         22.41029        13.42920        -1.68860
O          3.36584         4.22774         2.40077
O          6.27454         2.27118        -0.06252
O          5.83792        15.89698        -2.19745
O          8.48855         2.65492         1.09653
O         25.47636         8.10401         1.43375
O         16.38088         8.12666         0.94304
O         30.31697        12.54460         2.12557
O         12.89791         8.03350        -2.46464
O         11.67679        14.41900         0.92436
O         21.71700        16.80841        -1.83456
O          3.38967        10.51792         1.60474
O          8.17075        17.10152        -1.95091
O         30.29515         3.59562         0.83012
O         17.90051        16.68734         1.20977
O         20.79478         7.82420         1.67875
O         21.02595         2.64767        -1.55220
O         23.46637        14.64852         1.53201
O         15.59340        12.42504        -2.27174
O         27.74457         6.09145        -1.49484
O         26.43408        14.74602         2.18248
O         24.75661         0.96161         1.84571
H         24.83022         1.83041         2.29390
O         30.67753        15.06627        -1.43578
H         30.11232        15.85209        -1.65371
O         21.15834         6.69477        -1.77387
H         20.95175         5.90004        -2.31142
O         20.82698        10.60253         1.74128
H         20.79967         9.62600         1.98730
O         26.04552        11.09260        -1.53243
H         26.07331        10.27990        -2.08030
O         31.11230         5.96717         1.80739
H         30.93940         4.99715         1.88795
O         10.90938         6.09448        -2.66222
H         11.64202         6.64596        -3.03226
O         29.53532        17.49337        -1.20299
H         30.24711        18.14380        -1.38600
O          2.08466         5.20150        -0.86708
H          1.99701         6.03389        -1.37821
O         16.79006        12.78196         1.15100
H         17.55279        13.08522         1.68939
H          0.49364         1.48257         1.96490
H          0.30775         3.79447         1.11523
H          2.66781         0.39480         2.28863
H          0.28441         5.87798         1.30234
H          0.33412         8.30495         1.27544
H          0.17324        10.23786         0.74042
H          0.18599        12.63467         0.42939
H          0.30372        14.55625         0.90475
H          0.39329        16.99393         1.00435
H          1.53802        19.08825         0.77960
H          4.89281         0.23732         2.21601
H          3.66621        20.35251         0.56430
H          7.53887        -0.47098         1.28780
H          6.04105        20.40589         0.17473
H         10.06736         0.04362        -0.27312
H          8.48230        20.45156         0.12604
H         12.24845         0.25815        -0.06384
H         11.11721        20.41081        -0.08370
H         14.67392         0.24926         0.00585
H         13.52725        20.37406        -0.04768
H         17.15665         0.24646         0.06069
H         15.97155        20.40816        -0.21368
H         19.57828         0.24174         0.26433
H         18.50989        20.39673        -0.21898
H         22.15619         0.17418         0.28749
H         20.95290        20.38569        -0.14959
H         24.61820         0.19114        -0.06096
H         23.45018        20.40564         0.09011
H         27.16435         0.22328        -0.40107
H         25.88369        20.37965         0.48253
H         29.51252         0.36110        -1.20983
H         28.25617        20.30773         1.25010
H         31.61959         1.61265        -1.45836
H         32.89906         3.87873        -1.28368
H         33.02473         6.19367        -0.54076
H         33.09125         7.98724         0.75532
H         33.09904        10.44175         0.91453
H         33.15230        12.46879         0.61852
H         33.03533        14.79948         0.01766
H         32.82788        16.49545         1.27774
H         30.69126        20.22179         1.75737
H         32.77003        18.88573         1.93467
