         334
 CSIRO Nanostructure Databank - Neutral Graphene Oxide Data Set
C         30.75753        57.38601        -1.78067
C         30.73780        58.80068        -1.66838
C         29.61873        59.55964        -2.11479
C         30.66948        61.60047        -1.33040
C         29.59926        60.93266        -1.96289
C         33.08461        53.03439        -1.15335
C         33.02485        54.43953        -1.10046
C         31.88150        55.19840        -1.37523
C         33.01086        57.35692        -0.86757
C         31.87255        56.64235        -1.36129
C         32.99511        58.73852        -0.66379
C         31.83974        59.48910        -1.06452
C         32.85531        61.63433        -0.10376
C         31.77870        60.89613        -0.87227
C         35.59064        48.74359        -1.41920
C         35.53119        50.19148        -0.97921
C         34.36364        50.90742        -1.15185
C         35.47946        52.98955        -0.49516
C         34.30107        52.32202        -0.93568
C         35.48042        54.43170        -0.36176
C         34.33381        55.19001        -1.00938
C         35.46028        57.30512        -0.27709
C         34.13721        56.53870        -0.30208
C         35.34331        58.74253         0.15979
C         34.15271        59.44197        -0.10915
C         35.31040        61.51951         0.42595
C         34.13974        60.85598         0.07747
C         37.99904        44.46375        -0.80285
C         37.92927        45.83351        -0.47994
C         36.71066        46.60087        -0.75426
C         38.03601        48.67734        -0.60643
C         36.72215        47.95485        -0.81007
C         37.91005        50.13753        -0.24462
C         36.70995        50.84872        -0.48443
C         37.81287        52.90199         0.34458
C         36.66326        52.24935        -0.19416
C         37.64135        54.30294         0.89599
C         36.53397        55.08251         0.22310
C         37.78963        57.27710         0.48806
C         36.47696        56.54841         0.58254
C         37.79551        58.65334         0.53944
C         36.54172        59.40125         0.48797
C         37.78086        61.50800         0.75030
C         36.55044        60.82715         0.58867
C         40.53852        40.25948        -1.17736
C         40.48077        41.63286        -0.92245
C         39.27689        42.35478        -0.98288
C         40.37839        44.43052        -0.19598
C         39.20825        43.74669        -0.68050
C         40.29257        45.79887         0.20445
C         39.06211        46.49675         0.03310
C         40.21026        48.66833         0.62276
C         38.89557        47.94652         0.43546
C         40.26488        50.02538         0.52824
C         39.05083        50.79339         0.23821
C         40.23814        52.86238         0.97215
C         39.01101        52.19428         0.53296
C         40.24032        54.33589         1.11544
C         38.96597        55.10032         0.96313
C         40.29920        57.22522         0.39207
C         39.00304        56.44306         0.21155
C         40.26470        58.69646         0.63654
C         39.05090        59.38367         0.62865
C         40.25086        61.52338         0.81792
C         39.02692        60.82594         0.74948
C         43.02862        35.98915        -1.45803
C         42.89469        37.27170        -0.69584
C         41.74566        38.12143        -1.15720
C         42.93839        40.18277        -0.52528
C         41.73870        39.49311        -1.00408
C         42.91856        41.56665        -0.24742
C         41.76985        42.40185        -0.75444
C         42.72291        44.36896         0.49320
C         41.61374        43.73511        -0.05637
C         42.67847        45.75879         0.85715
C         41.45416        46.45071         0.71619
C         42.61821        48.58891         1.49148
C         41.36935        47.87409         1.09523
C         42.69102        50.05706         1.32963
C         41.57980        50.76591         0.58832
C         42.68374        52.89127         1.35159
C         41.44471        52.20179         1.02366
C         42.71011        54.34298         1.27543
C         41.54578        55.02313         0.99600
C         42.71186        57.26242         1.22975
C         41.53871        56.48162         0.76140
C         42.73244        58.71507         0.93149
C         41.50511        59.40101         0.78997
C         42.72630        61.53538         0.92141
C         41.49640        60.84531         0.83374
C         45.59087        33.35793        -2.10920
C         44.36822        34.01684        -2.10182
C         45.46653        36.00728        -1.13608
C         44.25876        35.34342        -1.57215
C         45.40669        37.37295        -0.74017
C         44.18998        38.03807        -0.62468
C         45.29605        40.12318         0.12537
C         44.13709        39.45223        -0.33079
C         45.25374        41.48013         0.49208
C         44.03907        42.19524         0.31086
C         45.23148        44.39301         0.51458
C         43.96982        43.59955         0.85801
C         45.16699        45.77028         1.15742
C         43.89221        46.43578         1.25192
C         45.05445        48.54115         1.84432
C         43.90015        47.84697         1.53878
C         45.00708        49.99801         2.28838
C         43.81002        50.73928         1.71926
C         45.04662        52.91601         2.20971
C         43.83769        52.18907         1.65739
C         45.14175        54.36453         1.77163
C         43.99494        55.02615         1.41921
C         45.25061        57.19934         0.98787
C         43.98001        56.51488         1.41623
C         45.20645        58.70497         1.12073
C         43.96461        59.40648         1.01653
C         45.20378        61.53074         0.99076
C         43.96361        60.85047         0.97835
C         46.75165        33.97321        -1.62343
C         47.89353        35.93892        -0.65238
C         46.72222        35.30992        -1.14655
C         47.91041        37.30616        -0.26410
C         46.69781        38.14662        -0.59267
C         47.74823        40.01803         0.84151
C         46.52683        39.33504         0.32429
C         47.71497        41.49529         0.96907
C         46.47763        42.18363         0.87013
C         47.63290        44.29845         1.19398
C         46.46707        43.60828         0.89973
C         47.64095        45.80174         1.08340
C         46.32922        46.41545         1.49714
C         47.57144        48.57212         1.82888
C         46.32089        47.77732         2.13553
C         47.52133        49.98862         1.89883
C         46.30758        50.74702         2.02607
C         47.56772        52.87064         2.09835
C         46.33255        52.14985         2.01822
C         47.74402        54.39258         2.31857
C         46.40580        55.12847         2.05433
C         47.72245        57.26420         1.37539
C         46.44421        56.57923         1.67843
C         47.68151        58.65751         1.12699
C         46.42207        59.38896         1.12620
C         47.66325        61.50610         0.85015
C         46.43066        60.83193         1.01786
C         49.03998        37.92402         0.23105
C         49.98020        40.26698        -0.17239
C         49.11225        39.35308         0.70884
C         50.17216        41.59362         0.55029
C         48.94533        42.20217         1.07084
C         49.98083        44.34596         1.82246
C         48.85888        43.60183         1.37927
C         50.05424        45.76360         1.81597
C         48.86847        46.48329         1.63443
C         50.04508        48.65444         1.65784
C         48.82068        47.91490         1.75070
C         50.01493        50.05055         1.65563
C         48.75591        50.69928         1.89935
C         50.49049        53.08548         1.66127
C         48.68524        52.06572         2.25654
C         50.16602        54.44051         1.26281
C         48.95122        55.07795         1.53872
C         50.08094        57.20289         0.79416
C         48.90828        56.50388         1.23987
C         50.08050        58.62585         0.63927
C         48.88203        59.35873         0.83613
C         50.07257        61.45921         0.34016
C         48.87679        60.79661         0.68568
C         51.39942        42.20609         0.42192
C         52.57597        44.46644         0.74712
C         51.77832        43.42356         1.11053
C         52.70607        45.65517         1.69532
C         51.38136        46.44830         1.93194
C         52.53924        48.61026         1.14592
C         51.34870        47.94305         1.67080
C         52.43116        49.98657         0.67677
C         51.17631        50.77246         1.04528
C         52.27146        52.82561        -0.04358
C         51.30053        52.24388         0.96228
C         52.38858        54.32134         0.15023
C         51.26865        55.07476         0.57862
C         52.44703        57.14462         0.02475
C         51.26674        56.48488         0.46074
C         52.44481        58.58800        -0.10845
C         51.26647        59.31263         0.21663
C         52.44053        61.39351        -0.38303
C         51.26241        60.73962         0.06464
C         53.85294        46.54121         1.28007
C         54.94714        48.64989         0.62210
C         53.78543        47.91897         1.04861
C         54.91252        50.02196         0.30021
C         53.66155        50.75026         0.34782
C         54.81011        52.82072        -0.28966
C         53.60993        52.10301         0.04756
C         54.80219        54.22350        -0.45282
C         53.58497        54.98462        -0.18882
C         54.90993        57.14827        -0.36641
C         53.61261        56.39772        -0.21286
C         54.71609        58.43130        -1.16202
C         53.57717        59.25224        -0.60877
C         54.80833        61.31191        -1.17583
C         53.58847        60.66481        -0.73595
C         56.07274        50.70801        -0.13119
C         57.20261        52.76733        -0.88672
C         56.04430        52.08619        -0.43627
C         57.19144        54.15393        -1.10534
C         56.00101        54.90944        -0.82020
C         57.19227        56.99825        -1.36760
C         56.04309        56.32410        -0.92237
C         57.19221        58.45462        -1.49012
C         56.02334        59.18116        -1.29744
C         57.25580        61.38315        -1.64658
C         55.97523        60.61640        -1.39983
C         58.35590        54.85943        -1.53963
C         59.65464        56.90911        -2.08014
C         58.36369        56.23404        -1.68233
C         59.53282        58.38600        -2.36293
C         58.39579        59.12971        -1.97060
C         59.48120        61.15985        -2.77402
C         58.38925        60.53257        -2.16478
C         60.61352        59.03498        -2.97360
C         60.58309        60.41233        -3.19599
O         46.19910        56.19910         3.06460
O         41.65984        48.14649         2.53845
O         39.53423        55.00076         2.29565
O         41.27253        56.85294        -0.66095
O         43.23844        57.00652         2.58165
O         49.84894        52.60592         2.79793
O         51.34443        50.19144        -0.32579
O         51.05185        43.61812         2.32229
O         51.55051        47.33982         3.06087
O         46.88813        39.23073         1.74137
O         37.18753        54.13375         2.28280
H         38.00863        54.10546         2.83540
O         42.17407        42.77276        -2.12765
H         41.37373        43.11119        -2.58297
O         44.84682        52.98229         3.65864
H         44.14634        53.64404         3.84071
O         46.35231        47.57717         3.59693
H         46.02741        48.42003         4.00165
O         42.04822        50.82535        -0.81146
H         41.30628        51.16838        -1.35430
O         45.31214        44.58731        -0.92668
H         44.42589        44.85990        -1.24898
O         60.25499        56.22777        -3.19313
H         59.64101        56.28819        -3.95325
O         49.72880        39.34267         2.01714
H         49.07629        38.95305         2.63812
O         36.01933        57.45412        -1.60133
H         35.86745        56.63014        -2.12336
O         42.57262        36.87103         0.71153
H         43.35087        36.38245         1.05645
O         35.81845        48.73528        -2.85097
H         36.75308        49.00479        -2.99268
O         38.72091        48.64057        -1.89675
H         38.86597        47.69506        -2.11940
O         51.76815        52.63366        -1.39550
H         51.55666        51.67068        -1.47176
O         54.32050        58.03589        -2.51088
H         54.12783        58.85210        -3.01768
O         49.31342        40.50711        -1.41552
H         48.67345        39.78014        -1.61025
O         43.98032        43.48079         2.30919
H         43.17562        42.99442         2.58430
O         38.17338        47.99643         1.69383
H         38.76245        47.63866         2.39113
O         44.85943        49.94912         3.74943
H         43.95966        49.60929         3.94487
O         57.02209        62.50899        -2.50234
H         56.77466        62.17365        -3.38795
O         55.31695        57.55359         0.97671
H         55.44665        56.74212         1.51059
O         36.09391        56.61761         2.00069
H         36.43971        55.78694         2.42592
O         46.99898        38.75956        -1.89851
H         46.99235        38.04423        -2.57008
O         53.07202        45.11950         2.99595
H         52.89116        45.83235         3.64899
O         38.89097        56.04469        -1.18726
H         39.75310        56.26365        -1.61482
O         48.06703        54.55393         3.70899
H         47.58924        55.35593         4.02697
O         47.74101        46.05977        -0.37175
H         46.97929        45.59315        -0.80032
O         45.41271        56.89647        -0.43138
H         44.75561        57.41937        -0.93763
O         33.11626        62.91261        -0.69928
H         33.45476        62.76185        -1.60542
O         33.68560        56.22123         1.04008
H         34.41376        56.41271         1.68463
O         34.70155        55.38206        -2.41539
H         34.79142        54.49193        -2.81707
H         29.87666        56.86991        -2.19169
H         28.77131        59.03932        -2.58417
H         30.62933        62.69009        -1.19106
H         28.73552        61.51322        -2.31646
H         32.17267        52.45969        -1.37745
H         30.93835        54.67927        -1.60924
H         32.44434        61.85212         0.92380
H         34.60725        48.24069        -1.24206
H         33.46178        50.39142        -1.51489
H         35.29417        62.61610         0.51609
H         37.10365        43.95054        -1.18296
H         35.79681        46.04256        -1.01144
H         37.78008        62.60661         0.81862
H         39.60762        39.72336        -1.41985
H         38.34622        41.82473        -1.23673
H         40.24044        62.62240         0.87021
H         42.11290        35.47151        -1.78218
H         40.83293        37.61023        -1.49970
H         42.72227        62.63517         0.94994
H         45.64919        32.32955        -2.49344
H         43.46301        33.51201        -2.46787
H         45.21466        62.62833         0.91608
H         47.70492        33.42581        -1.62616
H         48.81702        35.34788        -0.55979
H         47.66486        62.60152         0.74769
H         49.94497        37.31787         0.39535
H         50.98453        39.79132        -0.35886
H         50.06764        62.55374         0.22777
H         52.14967        41.72996        -0.22946
H         53.17443        44.43345        -0.17356
H         52.44181        62.48958        -0.47855
H         54.82930        46.04343         1.18257
H         55.90055        48.10852         0.53477
H         54.81897        62.40877        -1.26154
H         57.02021        50.15633        -0.22149
H         58.13030        52.19944        -1.05175
H         57.58635        61.81171        -0.65702
H         59.27219        54.29156        -1.75873
H         60.37870        56.78977        -1.22392
H         59.45727        62.24882        -2.92148
H         61.48518        58.44122        -3.28272
H         61.43352        60.91107        -3.68126
