         324
 CSIRO Nanostructure Databank - Neutral Graphene Oxide Data Set
C          2.06560         1.99531        -2.94390
C          2.08122         3.42228        -2.97266
C          3.08629         1.29591        -2.35554
C          3.11216         4.13740        -2.40743
C          1.87244         6.38328        -2.44400
C          1.85398         7.72122        -2.20606
C          3.13105         5.62928        -2.45666
C          3.01842         8.46553        -1.77984
C          1.69526        10.64550        -1.78606
C          1.57142        11.98281        -1.56890
C          2.89077         9.89360        -1.45838
C          2.55801        12.73619        -0.77846
C          1.43058        14.90509        -1.21668
C          1.39524        16.28033        -1.30968
C          2.59757        14.23236        -0.78778
C          2.55556        17.03955        -1.03901
C          2.51741        18.44904        -1.29969
C          4.18674         1.97897        -1.74095
C          4.19789         3.43788        -1.74750
C          5.28252         1.26766        -1.25231
C          5.24190         4.12219        -1.14141
C          4.35522         6.37470        -1.94497
C          4.20492         7.78017        -1.51706
C          5.46677         5.56845        -1.34011
C          5.34423         8.44186        -0.89712
C          3.98909        10.58500        -0.98322
C          3.85808        11.97215        -0.52428
C          5.31058         9.92418        -0.90212
C          5.05184        12.76581        -0.19407
C          3.74349        14.95837        -0.36769
C          3.74477        16.41239        -0.54967
C          4.90795        14.15750         0.07590
C          4.89592        17.28864        -0.44330
C          3.63530        19.23386        -1.22013
C          4.89688        18.66724        -0.85167
C          6.35949         1.92359        -0.59563
C          6.19094         3.36628        -0.29268
C          7.54750         1.29251        -0.26444
C          7.18428         4.06481         0.58134
C          6.52630         6.28632        -0.55908
C          6.44515         7.76930        -0.42407
C          7.25653         5.57635         0.54540
C          7.65127         8.46178         0.11712
C          6.48395        10.68619        -0.37210
C          6.28225        12.10786         0.01673
C          7.63514         9.94044         0.22619
C          7.41880        12.81001         0.45331
C          6.00507        14.71667         0.75982
C          6.06830        16.79284         0.20429
C          7.28819        14.15404         0.82853
C          7.36927        16.93665        -0.23493
C          6.02725        19.54333        -0.71297
C          7.36961        19.11815        -0.74129
C          8.63164         1.98135         0.36434
C          8.36700         3.24852         1.15957
C          9.89134         1.42688         0.38237
C          9.61095         4.08154         1.41475
C          8.33311         6.29231         1.29669
C          8.69300         7.71961         0.93484
C          9.35564         5.43120         2.05475
C          9.66507         8.46321         1.82762
C          8.67706        10.61533         0.78406
C          8.70950        12.09123         0.56755
C          9.93080         9.93607         1.35626
C          9.90686        12.88315         0.92578
C          8.45402        15.05419         1.21603
C          8.52097        16.29700         0.31541
C          9.78460        14.34351         1.14562
C          9.75926        16.87639         0.06803
C          8.52706        19.76681        -0.24777
C          9.79738        19.11943        -0.20955
C         11.02232         2.13404         0.90536
C         10.86903         3.49996         1.38966
C         12.26942         1.54569         0.92871
C         12.06018         4.20278         1.86532
C         10.61449         6.20305         2.33329
C         10.55645         7.65311         2.52538
C         11.78050         5.46756         2.49721
C         12.66784         8.72477         3.10092
C         10.72810        10.97121         2.19012
C         10.98650        12.22280         1.69814
C         12.66609        10.14721         3.04726
C         12.22337        13.03221         1.91441
C         10.96170        15.06555         1.12043
C         10.96395        16.44676         0.68498
C         12.22305        14.38052         1.26169
C         12.15327        17.20696         0.61179
C         10.98737        19.50220         0.41044
C         12.17021        18.66154         0.49546
C         13.45076         2.26807         1.28465
C         13.37484         3.65649         1.71228
C         14.66634         1.59389         1.18088
C         14.65659         4.36006         1.81210
C         13.79245         6.56247         2.62698
C         13.78038         7.99245         2.72043
C         14.76316         5.80185         2.01416
C         15.02904         8.72326         2.53220
C         13.70141        10.92044         2.53941
C         13.60313        12.35151         2.14978
C         15.01548        10.27051         2.46099
C         14.78922        12.95793         1.49476
C         13.38288        15.03390         0.91395
C         13.39230        16.47237         0.67657
C         14.56411        14.14684         0.58195
C         14.60250        17.16106         0.52474
C         13.41569        19.30442         0.60264
C         14.64868        18.59405         0.56856
C         15.90923         2.25639         1.33043
C         15.87825         3.68616         1.55118
C         17.10914         1.53772         1.17342
C         17.14998         4.38317         1.50162
C         15.97373         6.52505         1.53785
C         16.10390         8.00682         1.81178
C         17.23247         5.76843         1.42683
C         17.43196         8.66802         1.76900
C         16.14820        10.93064         1.80376
C         16.00170        12.24073         1.31261
C         17.42362        10.20454         1.69381
C         17.18671        12.89661         0.71937
C         15.82471        14.92054         0.25725
C         15.83954        16.42736         0.21171
C         17.11138        14.21301         0.33090
C         17.13255        17.13356         0.25493
C         15.90154        19.25334         0.55509
C         17.14062        18.55710         0.42945
C         18.38306         2.15293         1.25305
C         18.40374         3.60312         1.54221
C         19.57560         1.46735         1.03403
C         19.71775         4.33465         1.29681
C         18.47445         6.47981         1.19324
C         18.53925         7.91115         1.17689
C         19.67350         5.76839         0.98561
C         19.70440         8.60224         0.80531
C         18.55217        10.81508         0.98392
C         18.45606        12.17792         0.59328
C         19.70586        10.05132         0.69846
C         19.60897        12.81173         0.08781
C         18.26697        14.96185        -0.20720
C         18.31516        16.42907        -0.00429
C         19.57008        14.21993        -0.33752
C         19.56531        17.09989        -0.07784
C         18.38949        19.21917         0.41458
C         19.60187        18.52537         0.17557
C         20.86235         2.11058         0.92568
C         20.91751         3.56358         0.92737
C         22.00255         1.36575         0.63006
C         22.06067         4.25190         0.55890
C         20.85691         6.43658         0.57057
C         20.87538         7.86057         0.44656
C         22.05968         5.69128         0.35732
C         22.07104         8.53463         0.07065
C         20.87048        10.71102         0.20213
C         20.84179        12.11516        -0.02931
C         22.06384         9.97313        -0.07808
C         22.04146        12.81026        -0.41215
C         20.82596        14.99097        -0.37960
C         20.78227        16.38020        -0.31921
C         22.05649        14.24539        -0.51377
C         21.99492        17.19698        -0.70579
C         20.85005        19.18683         0.28099
C         22.08675        18.51745         0.04835
C         23.32088         1.98547         0.52841
C         23.34228         3.52692         0.49653
C         24.49634         1.31538        -0.02976
C         24.46021         4.19136        -0.27593
C         23.24607         6.38364         0.04724
C         23.27211         7.79454        -0.09610
C         24.53243         5.65637         0.09927
C         24.50059         8.45875        -0.48574
C         23.20759        10.64757        -0.53792
C         23.23208        12.07121        -0.64646
C         24.38722         9.85912        -0.94087
C         24.47667        12.77075        -0.85884
C         23.27904        14.92122        -0.67704
C         23.30385        16.40188        -0.72253
C         24.50399        14.19247        -0.71809
C         24.59466        17.06099        -0.33596
C         23.29152        19.12044         0.34176
C         24.60520        18.39237         0.39492
C         25.71544         2.00208        -0.22850
C         25.76581         3.44645        -0.22826
C         26.92797         1.29720        -0.46392
C         26.96100         4.11720        -0.44466
C         25.82407         6.40051        -0.04756
C         25.73123         7.80706        -0.51821
C         27.13136         5.60730        -0.16639
C         26.92558         8.48990        -0.97125
C         25.66882        10.60445        -1.30233
C         25.68972        12.07222        -1.12249
C         26.92821         9.84298        -1.22686
C         26.92012        12.75452        -1.12865
C         25.76789        14.84538        -0.52522
C         25.82538        16.24517        -0.18289
C         26.95648        14.10326        -0.69549
C         27.02310        16.91993         0.02893
C         25.83559        19.20470        -0.05257
C         27.09984        18.36489         0.08051
C         28.14021         1.97064        -0.68764
C         28.17500         3.40052        -0.66863
C         29.37189         1.24708        -0.87459
C         29.41358         4.09043        -0.92773
C         28.15957         6.22947        -1.09059
C         28.14635         7.70557        -1.31036
C         29.44919         5.50323        -1.10621
C         29.44658         8.40045        -1.45746
C         28.17588        10.54498        -1.59674
C         28.16461        12.05441        -1.56009
C         29.47049         9.81407        -1.51296
C         29.48114        12.79004        -1.50221
C         28.23985        14.69948        -0.29664
C         28.27673        16.15555         0.12571
C         29.50828        14.13223        -0.84013
C         29.57118        16.85576         0.08302
C         28.31785        18.98470         0.20227
C         29.57371        18.26168         0.20711
C         30.55757         1.90579        -1.04713
C         30.60849         3.34034        -1.10206
C         31.81409         4.03301        -1.37364
C         30.64515         6.18211        -1.38939
C         30.65095         7.65096        -1.50456
C         31.83519         5.41134        -1.49698
C         31.85878         8.36526        -1.63367
C         30.69361        10.50790        -1.59089
C         30.80200        12.02595        -1.70581
C         31.87724         9.75469        -1.67287
C         31.89363        12.58448        -0.80765
C         30.77082        14.71606        -0.33419
C         30.79082        16.11510         0.00493
C         31.90460        13.85980        -0.30231
C         32.00779        16.83140         0.15378
C         30.80950        18.93821         0.31288
C         32.00514        18.21541         0.31102
O         11.45197         8.15578         3.48103
O          6.98575         6.18524         1.84872
O         12.76034         5.97315         3.33968
O         15.71252         7.53031         0.47992
O         12.89329        13.13074         3.19927
O          6.32619        10.49432        -1.82375
O          6.82476         5.81962        -1.90793
O         15.40251         9.52321         3.67447
O         24.76452        10.10190        -2.33962
O          5.83781        15.98275         1.33896
O          5.91317         3.62285         1.16810
O         23.69582         2.84298         1.69976
O         29.44709        14.01064        -2.32282
O          8.91086         7.93200        -0.49745
O         24.18395        17.02434        -1.74282
O          4.14805         6.16006        -3.37586
O         25.25207         6.10645         1.27578
O         11.39725        10.64815         3.37305
O         17.81529         9.46407         2.91129
O          7.54707        17.82610        -1.30915
O          9.69172        12.48828        -0.48416
O          9.87789        17.88693        -0.89075
O          2.82427        12.13424         0.52440
O         18.71507        14.47897        -1.51599
O         28.27942        15.05000         1.11627
O         28.01483        11.33830        -2.82806
O         27.79063         6.74207        -2.40207
O         27.77322         5.53402         1.08950
O         15.68689        15.61262        -1.03215
O         19.25957         3.99761         2.66081
O         24.84874        18.10502         1.80924
H         24.01275        17.79184         2.21346
O          8.81456         5.17165         3.38218
H          8.33395         4.30491         3.34620
O         10.83258         9.74008         0.22558
H         10.33363         9.21379        -0.44924
O          8.26640        15.49394         2.58895
H          7.36369        15.88560         2.63900
O         21.71343        17.57858        -2.08259
H         22.58474        17.73405        -2.51542
O          7.92699         2.78157         2.47815
H          6.94243         2.69802         2.41810
O         24.03096         4.21144        -1.67780
H         24.23234         3.33826        -2.07535
O         25.93603        20.38951         0.73111
H         25.86936        20.11021         1.66967
O         31.26338        12.28909        -3.05667
H         30.87770        13.15802        -3.31849
O         14.17577        13.50198        -0.68134
H         14.42755        14.12549        -1.40285
H          1.22606         1.46352        -3.41214
H          1.25291         3.94661        -3.46934
H          3.07738         0.19654        -2.34623
H          0.92661         5.84748        -2.60885
H          0.88538         8.23776        -2.23707
H          0.90007        10.14362        -2.35398
H          0.71039        12.50537        -2.00798
H          0.52870        14.33253        -1.46772
H          0.48123        16.79172        -1.64286
H          1.55972        18.88654        -1.61777
H          5.32950         0.17784        -1.39497
H          3.58135        20.30437        -1.46397
H          7.70011         0.24432        -0.56553
H          5.81555        20.61737        -0.59285
H         10.06017         0.44345        -0.08304
H          8.42075        20.75855         0.21461
H         12.38105         0.50255         0.59666
H         11.08545        20.53506         0.77949
H         14.66121         0.52447         0.92213
H         13.44728        20.40448         0.61070
H         17.05077         0.45820         0.96628
H         15.92140        20.35184         0.61517
H         19.53471         0.37859         0.87445
H         18.42223        20.30692         0.57556
H         21.91125         0.28548         0.44064
H         20.86978        20.22697         0.64156
H         24.44383         0.23654        -0.24155
H         23.28373        20.13142         0.78100
H         26.92384         0.19729        -0.41949
H         25.71120        19.51089        -1.12354
H         29.34198         0.14771        -0.86627
H         28.35050        20.08314         0.25793
H         31.49158         1.34006        -1.17816
H         32.74426         3.45960        -1.49717
H         32.79422         5.90353        -1.70792
H         32.81475         7.82950        -1.70144
H         32.84057        10.26740        -1.79570
H         32.81878        11.99547        -0.72673
H         32.82230        14.21928         0.18784
H         32.96547        16.29513         0.10940
H         30.82348        20.03274         0.41040
H         32.96087        18.74868         0.41079
