         429
 CSIRO Nanostructure Databank - Neutral Graphene Oxide Data Set
C          2.12211         2.42772         3.85056
C          1.95677         3.78590         3.42312
C          3.19895         1.68185         3.45190
C          2.81578         4.36744         2.52318
C          1.56284         6.55165         2.46007
C          1.43114         7.85825         2.11781
C          2.71812         5.75859         2.09885
C          2.40506         8.52213         1.24239
C          1.27553        10.75030         1.37546
C          1.25165        12.12590         1.19077
C          2.43819        10.00216         1.13063
C          2.39181        12.81561         0.72659
C          1.20076        15.06112         0.91302
C          1.19091        16.42002         0.97567
C          2.40442        14.28211         0.67455
C          2.44086        17.18876         0.98284
C          2.46590        18.66235         0.78692
C          4.17192         2.21841         2.54256
C          3.83736         3.50334         1.81488
C          5.34615         1.54885         2.28659
C          5.06912         4.26955         1.39160
C          3.79488         6.36398         1.45148
C          3.68348         7.74352         0.93995
C          5.02968         5.63786         1.19812
C          4.91654         8.51569         0.66521
C          3.61112        10.65989         0.67910
C          3.56593        12.06475         0.45793
C          4.85563         9.91878         0.48621
C          4.76578        12.74127        -0.06560
C          3.58251        14.95657         0.40138
C          3.68608        16.40144         0.64243
C          4.78232        14.27020        -0.10123
C          4.85739        17.11442         0.04772
C          3.58985        19.32691         0.45876
C          4.84239        18.63943         0.04513
C          6.41195         2.11551         1.50512
C          6.22064         3.47114         0.94390
C          7.62406         1.47850         1.35750
C          7.45083         4.22036         0.43443
C          6.21297         6.37157         0.76117
C          6.15592         7.82762         0.62729
C          7.38489         5.68972         0.46902
C          7.34427         8.55896         0.34335
C          6.06032        10.63092         0.16342
C          6.05034        12.03654        -0.03578
C          7.29714         9.92070         0.06645
C          7.27353        12.77280        -0.22424
C          6.09766        14.95644        -0.01495
C          6.13599        16.39499         0.06643
C          7.26464        14.22259        -0.13238
C          7.34304        17.11504        -0.00132
C          6.12942        19.30375         0.10887
C          7.34799        18.58747         0.01696
C          8.80788         2.14740         0.87467
C          8.76646         3.54255         0.51979
C         10.03821         1.48862         0.89413
C          9.95214         4.24554         0.30776
C          8.60851         6.42092         0.09096
C          8.67288         7.86740         0.50901
C          9.91882         5.68785        -0.01196
C          9.87703         8.59586        -0.03319
C          8.48303        10.59966        -0.57555
C          8.47837        12.09295        -0.41140
C          9.82467         9.95038        -0.28642
C          9.69039        12.80656        -0.94845
C          8.57920        14.91507         0.09120
C          8.56848        16.40847        -0.09323
C          9.74675        14.26087        -0.57699
C          9.79981        17.08509        -0.20408
C          8.56854        19.26097         0.04562
C          9.86102        18.52788         0.23574
C         11.25605         2.18195         0.66336
C         11.22426         3.60135         0.41646
C         12.49274         1.51352         0.70775
C         12.43372         4.33383         0.28389
C         11.17440         6.46647         0.06552
C         11.13413         7.87339        -0.05193
C         12.41473         5.76905         0.11980
C         12.34616         8.59693        -0.24010
C         11.03906        10.71805        -0.44296
C         10.99605        12.10114        -0.64118
C         12.31912        10.01938        -0.39399
C         12.19664        12.86776        -0.79716
C         10.91511        14.95848        -0.78120
C         10.97990        16.39784        -0.56820
C         12.14216        14.23145        -1.03567
C         12.21058        17.10851        -0.77894
C         11.08443        19.24563        -0.24282
C         12.23210        18.55761        -0.58598
C         13.71095         2.20995         0.56863
C         13.69492         3.65852         0.39172
C         14.92927         1.50792         0.52565
C         14.90030         4.36799         0.31051
C         13.63264         6.48618         0.00095
C         13.59836         7.90675        -0.21479
C         14.89606         5.78513         0.07183
C         14.79495         8.63809        -0.40197
C         13.51825        10.72307        -0.56156
C         13.50462        12.21626        -0.40487
C         14.77253        10.03971        -0.64774
C         14.72996        12.92011        -1.00174
C         13.29393        15.00153        -1.62715
C         13.37017        16.45006        -1.20935
C         14.64725        14.33282        -1.45725
C         14.63302        17.12077        -1.32255
C         13.48469        19.23310        -0.74104
C         14.66443        18.54188        -1.00651
C         16.17238         2.17631         0.42561
C         16.18573         3.66398         0.72250
C         17.35243         1.47651         0.23607
C         17.45898         4.35949         0.22801
C         16.09501         6.49575        -0.10303
C         16.08249         7.94193        -0.31306
C         17.41101         5.83337        -0.11897
C         17.30454         8.60124        -0.94032
C         15.92588        10.70544        -1.16954
C         15.81719        12.08355        -1.59565
C         17.09813         9.91822        -1.61168
C         17.05474        12.84364        -2.18972
C         15.80568        15.03275        -2.18347
C         15.83355        16.45489        -1.65453
C         17.10633        14.27810        -1.99805
C         17.10273        17.09143        -1.47091
C         15.92306        19.19888        -0.93592
C         17.11753        18.49937        -1.08186
C         18.59900         2.14478        -0.05009
C         18.57965         3.54657        -0.24212
C         19.81321         1.44597        -0.18169
C         19.73744         4.18943        -0.86917
C         18.50598         6.45863        -0.91023
C         18.45001         7.75346        -1.34026
C         19.70055         5.64526        -1.23454
C         19.64793         8.38187        -1.96939
C         18.30717        10.58800        -2.22704
C         18.33538        12.08065        -2.37224
C         19.64094         9.86666        -2.26546
C         19.63716        12.81051        -2.15577
C         18.33406        14.95026        -1.79315
C         18.31014        16.37946        -1.56851
C         19.57479        14.24418        -1.80640
C         19.62220        17.13134        -1.55719
C         18.34874        19.12237        -0.73641
C         19.55894        18.44207        -0.80283
C         21.04527         2.13215        -0.42122
C         21.03740         3.51886        -0.76243
C         22.28078         1.46160        -0.33357
C         22.23601         4.23946        -1.00220
C         20.98561         6.36776        -1.42268
C         20.94847         7.70645        -1.74243
C         22.22670         5.63757        -1.32928
C         22.18305         8.42537        -2.23467
C         20.91047        10.63325        -2.04698
C         20.88264        12.03641        -1.89284
C         22.13711         9.91938        -1.95318
C         22.09512        12.77570        -1.66664
C         20.80736        14.91075        -1.49029
C         20.80136        16.27468        -1.19081
C         22.05240        14.17376        -1.50165
C         21.98069        16.85183        -0.46225
C         20.74451        19.03883        -0.33353
C         21.96369        18.34747        -0.30106
C         23.49731         2.15450        -0.53471
C         23.48481         3.55457        -0.86863
C         24.73146         1.48799        -0.38503
C         24.70931         4.25542        -1.04658
C         23.45747         6.34659        -1.50229
C         23.45413         7.74497        -1.78580
C         24.70046         5.65474        -1.35069
C         24.65529         8.47784        -1.82735
C         23.36652        10.61975        -1.82430
C         23.36338        12.05989        -1.67404
C         24.60215         9.90913        -1.89701
C         24.57216        12.75852        -1.48264
C         23.32659        14.97877        -1.64133
C         23.30414        16.33634        -0.96662
C         24.56325        14.18504        -1.28417
C         24.46980        17.04209        -0.76819
C         23.15655        18.98704         0.03832
C         24.43479        18.38788        -0.13941
C         25.95414         2.16854        -0.56297
C         25.94889         3.56248        -0.90798
C         27.18798         1.50584        -0.36789
C         27.18551         4.23607        -1.13467
C         25.93728         6.36046        -1.49893
C         25.91988         7.77631        -1.70422
C         27.17923         5.65973        -1.41304
C         27.15249         8.46572        -1.76837
C         25.85015        10.67759        -2.01728
C         25.85482        12.09244        -1.59221
C         27.18289         9.93121        -1.98161
C         27.05111        12.75843        -1.37088
C         25.72747        14.86894        -1.01269
C         25.72853        16.31002        -0.94576
C         27.01235        14.12644        -0.73902
C         26.95304        16.94571        -0.97613
C         25.53645        19.11109         0.36016
C         26.88621        18.86996        -0.03106
C         28.40505         2.17168        -0.58523
C         28.39537         3.52557        -1.03759
C         29.64495         1.52302        -0.28298
C         29.67919         4.14135        -1.52482
C         28.40680         6.36503        -1.51627
C         28.37297         7.77158        -1.67096
C         29.68220         5.65059        -1.47268
C         29.63771         8.53394        -1.76271
C         28.38794        10.67538        -1.57578
C         28.33799        12.08544        -1.39999
C         29.61149         9.98640        -1.43648
C         29.54330        12.78790        -1.15712
C         28.27058        14.93589        -0.92308
C         28.23157        16.31076        -0.77537
C         29.56786        14.28508        -1.29117
C         29.41307        17.08280        -0.42155
C         28.08355        19.02132         0.63320
C         29.32640        18.37734         0.22687
C         30.86891         2.18653        -0.36689
C         30.92520         3.54598        -0.89523
C         32.06339         1.58560         0.10145
C         32.11965         4.19419        -1.02024
C         30.88209         6.29851        -1.53888
C         30.91720         7.76647        -1.67206
C         32.19208         5.54367        -1.69566
C         32.13289         8.44619        -1.14558
C         30.79167        10.67463        -1.12650
C         30.76975        12.09979        -0.97775
C         32.06159         9.92357        -0.90747
C         31.95424        12.82732        -0.61211
C         30.76052        15.00016        -0.70219
C         30.66278        16.37239        -0.41347
C         31.97356        14.24541        -0.48049
C         31.89452        17.12854        -0.09971
C         30.49254        18.98458         0.72938
C         31.78441        18.43243         0.57914
C         33.32038         2.18559        -0.08661
C         33.38706         3.44305        -0.87584
C         34.47563         1.64231         0.47991
C         34.72195         4.11488        -1.12896
C         33.45735         6.33171        -1.31789
C         33.41706         7.71111        -1.21644
C         34.72961         5.61657        -1.23494
C         34.68799         8.54092        -1.17175
C         33.33125        10.74523        -0.98632
C         33.13561        12.01401        -0.13396
C         34.56044         9.94576        -0.61285
C         34.40457        12.80611        -0.02338
C         33.16546        14.90242        -0.03845
C         33.20621        16.36515         0.06548
C         34.38092        14.18280         0.20270
C         34.29392        17.00429         0.82606
C         32.91944        19.04715         1.10282
C         34.17265        18.36356         1.23522
C         35.76219         2.21050         0.26405
C         35.91024         3.35929        -0.59717
C         36.90035         1.63027         0.86496
C         37.19688         3.68899        -0.97860
C         35.91776         6.37018        -1.03916
C         35.78738         7.77168        -0.45371
C         37.21800         5.89807        -1.29209
C         37.07386         8.56771        -0.37724
C         35.69758        10.60660        -0.20852
C         35.66520        12.08193        -0.07483
C         36.98450         9.95641        -0.10725
C         36.88982        12.78664         0.49981
C         35.56705        14.86689         0.72208
C         35.46492        16.26896         1.12442
C         36.71713        14.15185         0.99804
C         36.52410        16.89985         1.80808
C         35.26059        18.98782         1.88752
C         36.43417        18.27240         2.18613
C         38.19636         2.14523         0.64927
C         38.36071         3.16919        -0.33587
C         39.35308         1.71254         1.37227
C         39.63864         3.75205        -0.51044
C         38.40652         6.58821        -0.90985
C         38.31374         7.93464        -0.43493
C         39.68560         5.96286        -0.91218
C         39.59865         8.71377        -0.28981
C         38.15566        10.65289         0.37939
C         38.04006        11.96791         0.91632
C         39.39640         9.98354         0.49491
C         39.05842        12.51858         1.70970
C         37.86653        14.73448         1.72809
C         37.76367        16.16256         2.13972
C         38.71614        13.75265         2.53859
C         38.53244        16.67583         3.34475
C         37.58326        18.91085         2.76913
C         38.69532        18.18566         3.20400
C         40.56251         2.36093         1.23314
C         40.71766         3.45649         0.32906
C         41.90830         4.29287         0.33740
C         40.80793         6.49581        -0.22875
C         40.75224         7.85622         0.19049
C         41.94467         5.63517         0.08751
C         41.78112         8.49339         0.92246
C         40.47475        10.57248         1.19793
C         40.29736        11.85084         1.82782
C         41.67994         9.80486         1.35501
C         41.38496        12.54057         2.49211
C         39.92750        14.42945         3.20052
C         39.84077        15.90344         3.59878
C         41.23517        13.75582         3.07271
C         41.06370        16.68586         3.84607
C         39.90311        18.81282         3.54652
C         41.06359        18.05794         3.84303
O         31.96307         9.00441         0.22443
O         34.05580         3.36186        -2.21011
O         17.31270         9.92140        -3.06013
O         32.87453        17.08157        -1.18410
O         30.44558         8.25522        -2.97254
O         26.98523        18.29046        -1.31850
O          2.61617         7.88011        -0.06198
O         19.09665        12.53597        -3.52606
O         39.65081        14.82534         4.59129
O          3.39990        16.77648         2.03280
O         38.60548        15.77167         0.99936
O         26.60447        10.38556        -3.24547
O          4.55721        13.49930        -1.32249
O         17.91289         5.38759         1.21307
O         19.60212         8.89032        -3.36124
O         15.96830        12.36027        -3.04279
O         37.37072         4.68191        -1.96222
O         36.66027        12.70968        -0.95596
O         17.10615         8.67468         0.50140
O          4.60554        17.83358        -1.19590
O          6.50420         3.58685        -0.48895
O         19.42964         4.65118        -2.28649
O         39.82215         4.71092        -1.52983
O          9.12680         6.06394        -1.21614
O         15.12785        14.02166        -0.10406
O          3.19797         3.07732         0.56093
H          3.04907         3.88049         0.01742
O         26.99155        13.86214         0.72926
H         26.14460        13.40623         0.92513
O         33.48817        11.12312        -2.38082
H         34.21991        11.77508        -2.44270
O         19.85404        17.51835        -2.96751
H         19.04430        17.97418        -3.28274
O         21.86888        16.31066         0.91636
H         22.57854        16.73243         1.44722
O          8.89352         7.79848         1.96309
H          8.94835         8.71612         2.30491
O         35.33401         7.59918         0.91942
H         36.09414         7.30660         1.46327
O         12.98631        14.99889        -3.05378
H         13.79536        15.30208        -3.54036
O         13.57099        12.40007         1.04586
H         14.02285        13.26461         1.19703
O          9.55286        12.76424        -2.41314
H          9.33698        11.82698        -2.64776
O          8.83558        14.73462         1.55616
H          9.49807        15.41018         1.81978
O         15.56325        15.08600        -3.61989
H         15.69711        14.17048        -3.96347
O          8.29792        10.36415        -2.03661
H          7.38138        10.63714        -2.26122
O         29.67204        14.50369        -2.76233
H         29.94388        15.43644        -2.90386
O         32.80867        11.53853         1.21113
H         32.61990        12.31976         1.77162
O         10.04321        18.44834         1.72465
H         10.97655        18.18748         1.88233
O         37.65742        16.44947         4.47839
H         38.16891        16.62864         5.29484
O         22.19608         8.28890        -3.69725
H         21.29334         8.54424        -4.01465
O         16.19541         3.73774         2.17944
H         16.68920         4.56065         2.41074
O         29.77848         3.79293        -2.94510
H         30.57335         4.26803        -3.29679
O         37.84762        13.26384         3.59280
H         38.07255        13.78138         4.40382
O         23.42459        15.24508        -3.08653
H         24.26736        15.72192        -3.24342
O         32.29748         5.25746        -3.12898
H         33.02456         4.59027        -3.22454
O         35.07538         8.71098        -2.56219
H         34.47917         9.39126        -2.95522
O         39.98349         9.14866        -1.65269
H         39.99314         8.35122        -2.22424
H          1.39923         2.01213         4.56635
H          1.14655         4.36731         3.88543
H          3.36712         0.67884         3.87134
H          0.78513         6.09157         3.08465
H          0.59181         8.43943         2.52516
H          0.35860        10.24484         1.70702
H          0.32389        12.66918         1.41092
H          0.23642        14.53521         0.94354
H          0.23549        16.96426         1.01041
H          1.54216        19.22000         1.00583
H          5.52011         0.56935         2.75995
H          3.58138        20.42690         0.41139
H          7.74322         0.45767         1.75212
H          6.16108        20.37606         0.35402
H         10.07553         0.41751         1.14213
H          8.58025        20.36083         0.08122
H         12.51231         0.42533         0.86781
H         11.12915        20.33786        -0.11082
H         14.91064         0.40743         0.50229
H         13.52642        20.31649        -0.55344
H         17.32837         0.37665         0.19861
H         15.95263        20.26283        -0.65754
H         19.83678         0.36319         0.00747
H         18.32108        20.13317        -0.30142
H         22.30493         0.39184        -0.08014
H         20.71605        20.08939        -0.00328
H         24.74060         0.42111        -0.11772
H         23.11932        20.04682         0.33496
H         27.19191         0.45487        -0.04414
H         25.32674        19.93168         1.06438
H         29.61744         0.49184         0.09903
H         28.11534        19.62000         1.55589
H         32.00807         0.61480         0.61589
H         30.39424        19.93495         1.27506
H         34.39400         0.73610         1.09738
H         32.82475        20.04894         1.54809
H         36.76290         0.78118         1.54981
H         35.17707        20.04382         2.18320
H         39.25118         0.88978         2.09386
H         37.61766        20.01098         2.79012
H         41.41883         2.06173         1.85481
H         42.83470         3.82145         0.70352
H         42.90805         6.14145         0.25495
H         42.69223         7.93071         1.17262
H         42.52468        10.23249         1.91173
H         42.38428        12.08406         2.48810
H         42.10286        14.22802         3.55402
H         41.98208        16.14596         4.11260
H         39.96661        19.90983         3.51303
H         41.99756        18.59324         4.06532
