         324
 CSIRO Nanostructure Databank - Neutral Graphene Oxide Data Set
C         30.42522        57.20813         0.45605
C         30.41285        58.60526         0.75287
C         29.19814        59.33710         0.72556
C         30.40780        61.41617         0.99205
C         29.20263        60.72144         0.88930
C         32.73916        52.86822        -0.07164
C         32.76643        54.28707         0.00052
C         31.57687        55.08991         0.09090
C         32.83966        57.00271         1.12443
C         31.60804        56.45020         0.42375
C         32.89028        58.54916         1.13903
C         31.63109        59.29995         1.00735
C         32.87306        61.45434         0.84773
C         31.64562        60.72346         1.00727
C         35.30136        48.55970         0.44671
C         35.31664        50.06795         0.57007
C         33.99599        50.75810         0.31261
C         35.18546        52.78930        -0.46135
C         33.94032        52.09537        -0.04924
C         35.19999        54.33499        -0.48946
C         33.99767        54.98854        -0.01557
C         35.17498        57.17890        -0.15262
C         34.19946        56.32336         0.65200
C         35.23518        58.64070         0.08696
C         34.14305        59.34225         0.82000
C         35.28161        61.48164         0.24408
C         34.07948        60.80760         0.59359
C         37.79721        44.29528         0.37676
C         37.76193        45.71054         0.34669
C         36.54239        46.42891         0.34951
C         37.75865        48.58888         0.19614
C         36.49209        47.85378         0.31078
C         37.74766        49.96473        -0.01416
C         36.43248        50.63652        -0.31314
C         37.67069        52.85757        -0.24848
C         36.48649        52.14441        -0.26077
C         37.68642        54.32968        -0.31529
C         36.49724        55.02651        -0.38897
C         37.71821        57.22812        -0.19650
C         36.46915        56.51208        -0.65961
C         37.71406        58.63241        -0.04103
C         36.51831        59.36183        -0.01761
C         37.74126        61.49870        -0.12419
C         36.50699        60.80049         0.05487
C         40.17272        39.98183         0.37594
C         40.25771        41.43884         0.22370
C         39.06736        42.15969         0.36589
C         40.25848        44.30135         0.30378
C         39.01761        43.58094         0.34645
C         40.23373        45.73567         0.35702
C         39.01459        46.43426         0.35389
C         40.21089        48.59232         0.32736
C         39.00274        47.87552         0.31053
C         40.20831        50.01506         0.09972
C         38.95729        50.72271        -0.09850
C         40.15583        52.87522        -0.45232
C         38.92013        52.12805        -0.22059
C         40.18777        54.35361        -0.29253
C         38.94054        55.07019        -0.26200
C         40.17444        57.22832        -0.05306
C         38.93275        56.49259        -0.15210
C         40.23461        58.62236        -0.04866
C         38.98223        59.37413         0.31555
C         40.20392        61.49172        -0.26206
C         38.97472        60.82787        -0.10848
C         42.70314        35.83491        -0.79869
C         42.58812        37.18506        -0.39030
C         41.30122        37.69521        -0.13549
C         42.93958        40.21210        -0.39267
C         41.04103        39.10785        -0.22803
C         42.80998        41.54697         0.01333
C         41.49989        42.18298         0.08010
C         42.77472        44.35297         0.03801
C         41.47737        43.58764         0.19756
C         42.68485        45.76347         0.56155
C         41.48392        46.45317         0.50999
C         42.65028        48.61622         0.67878
C         41.46609        47.90211         0.54660
C         42.64354        50.07381         0.58233
C         41.40831        50.71809         0.12491
C         42.73683        52.83629        -0.16830
C         41.46452        52.10909        -0.27972
C         42.73276        54.32239         0.01869
C         41.39866        55.00894        -0.16630
C         42.70897        57.22748        -0.24695
C         41.41634        56.46656         0.01464
C         42.67028        58.67434        -0.46140
C         41.46490        59.34420        -0.23262
C         42.67360        61.48766        -0.36629
C         41.45597        60.80693        -0.27885
C         45.19722        33.31431        -1.96458
C         43.97935        33.91550        -1.64876
C         45.17825        35.93692        -0.86766
C         43.92920        35.22489        -1.11259
C         45.16624        37.20222        -0.33211
C         43.87713        37.88366         0.07486
C         45.20953        40.03196         0.37844
C         44.02506        39.39128        -0.06408
C         45.19664        41.43572         0.60570
C         44.00672        42.19758         0.44890
C         45.18358        44.33130         0.75544
C         44.00385        43.62765         0.54199
C         45.21401        45.76118         0.79737
C         43.91949        46.43978         0.94581
C         45.21454        48.66366         0.75602
C         43.92484        47.97873         1.01067
C         45.23733        50.02831         0.40543
C         43.96714        50.79030         0.40740
C         45.18942        52.81199        -0.51800
C         43.92262        52.17070        -0.10583
C         45.17845        54.27413        -0.84527
C         43.86330        54.98997        -0.75765
C         45.17309        57.21236        -0.95940
C         43.85702        56.48164        -0.81954
C         45.14091        58.64878        -0.63201
C         43.94303        59.34939        -0.57678
C         45.13973        61.50441        -0.55078
C         43.94349        60.81786        -0.47527
C         46.40857        33.98013        -1.75416
C         47.65344        35.96721        -1.01307
C         46.43926        35.27888        -1.20164
C         47.70055        37.24293        -0.41900
C         46.44885        37.79291         0.22526
C         47.66890        39.96486         0.47051
C         46.46869        39.30403         0.36308
C         47.77179        41.37088         1.03255
C         46.42749        42.10396         1.07170
C         47.70440        44.35492         0.90373
C         46.43479        43.61601         1.06339
C         47.66924        45.75960         0.88572
C         46.41562        46.47953         0.88662
C         47.66675        48.61730         0.60173
C         46.43105        47.92787         0.79277
C         47.68346        50.01899         0.32290
C         46.46277        50.70237         0.19391
C         47.72238        52.89722        -0.30875
C         46.47751        52.09226        -0.33139
C         47.70745        54.28464        -0.59272
C         46.45654        55.03707        -0.81312
C         47.68561        57.20108        -0.94079
C         46.42975        56.41730        -0.88373
C         47.69231        58.62753        -0.56563
C         46.40947        59.36783        -0.26052
C         47.69249        61.47104        -0.38189
C         46.43408        60.77838        -0.86078
C         48.89307        37.95921        -0.31562
C         50.12701        40.03427         0.16230
C         48.92654        39.30719         0.14485
C         50.16934        41.45161         0.31761
C         48.83945        42.17584         0.24451
C         50.13575        44.28600         0.64585
C         48.92320        43.62722         0.66444
C         50.15810        45.73091         0.94104
C         48.89810        46.50443         0.82080
C         50.17331        48.59185         0.24304
C         48.90079        47.88024         0.64747
C         50.14751        50.09938         0.36019
C         48.93259        50.77035         0.19415
C         50.17828        52.89394        -0.15934
C         48.93334        52.19484        -0.04971
C         50.16828        54.29444        -0.44544
C         48.96178        54.97599        -0.63430
C         50.20759        57.19621        -0.49796
C         48.99497        56.44111        -0.88831
C         50.14961        58.61194        -0.32634
C         48.87259        59.30796        -0.36178
C         50.05863        61.48896         0.35171
C         48.82619        60.76676        -0.14644
C         51.35957        42.14761         0.40065
C         52.61377        44.26847         0.49279
C         51.40970        43.59130         0.49604
C         52.72928        45.76753         0.39724
C         51.45372        46.45891         0.84998
C         52.63284        48.63351         1.02414
C         51.41128        47.91966         0.74180
C         52.62449        50.14259         0.76919
C         51.37532        50.81897         0.33234
C         52.72212        52.83559        -0.33168
C         51.40204        52.18227         0.03541
C         52.69050        54.33866        -0.19175
C         51.46159        55.03190        -0.69877
C         52.62113        57.20407        -0.12213
C         51.41080        56.49561        -0.36616
C         52.59412        58.62935        -0.04427
C         51.35214        59.32745        -0.08618
C         52.54497        61.44978         0.17310
C         51.35730        60.75805         0.10262
C         53.93689        46.39346         1.14714
C         55.08538        48.64076         1.04769
C         53.93111        47.91842         1.04893
C         55.11946        50.09195         0.89726
C         53.91785        50.79609         0.58489
C         55.10933        52.89117         0.51562
C         53.93456        52.17203         0.28884
C         55.03738        54.35748         0.58425
C         53.82116        55.05178         0.10170
C         55.07101        57.22392         0.11629
C         53.85301        56.50349         0.04679
C         55.04432        58.64144        -0.00171
C         53.82611        59.34663         0.02119
C         55.01677        61.51147         0.13728
C         53.81761        60.79266         0.08628
C         56.32113        50.80719         0.95973
C         57.54822        52.96678         0.91988
C         56.33560        52.22329         0.83511
C         57.59646        54.36797         0.76943
C         56.32273        55.12519         0.72606
C         57.54668        57.20829         0.30144
C         56.34075        56.54637         0.32662
C         57.60126        58.65077         0.00781
C         56.29997        59.39547        -0.12502
C         57.48991        61.55771        -0.01672
C         56.28211        60.86924         0.05916
C         58.79358        55.09344         0.72633
C         60.00329        57.21894         0.54505
C         58.80892        56.51563         0.54574
C         60.15740        58.71683         0.45267
C         58.76215        59.46732         0.57260
C         59.80633        61.31167        -0.82121
C         58.73107        60.84114        -0.10370
C         60.96940        59.16208        -0.73309
C         60.87816        60.43190        -1.20337
O         40.88129        52.37695        -1.62575
O         44.28109        56.95598        -2.11572
O         43.86220        47.16887         2.22055
O         51.55129        54.95283        -2.26729
O         41.91666        39.69054        -1.17489
O         46.29277        42.84084         2.33183
O         50.95115        46.02747         2.17801
O         48.44996        56.88588        -2.16999
O         32.61916        56.58430         2.44763
O         45.80399        52.08591        -1.65476
O         42.32340        56.89168         1.13098
O         43.30540        50.73189         1.73209
O         57.12179        59.00680        -1.31628
O         58.53051        59.63832         1.93758
O         44.28849        54.43301        -2.01695
O         55.47329        54.86945         1.90074
O         34.62070        58.06282        -1.17193
O         52.47084        49.61963         2.13600
O         33.81776        58.99789         2.18604
O         35.03601        53.52204        -1.70404
O         35.68067        50.37916         1.95456
H         34.99036        50.00807         2.54290
O         36.47758        56.61977        -2.11401
H         35.83082        57.33140        -2.34503
O         43.10511        54.43870         1.43165
H         42.84749        55.34473         1.74134
O         46.50927        60.64399        -2.30613
H         46.46455        61.53950        -2.69978
O         52.71875        55.68488        -2.67412
H         52.35669        56.57242        -2.91632
O         52.93931        46.09938        -1.01166
H         52.51978        45.40569        -1.56242
O         55.14247        45.86110         0.61217
H         55.08310        45.95417        -0.36320
O         48.25698        41.21824         2.38076
H         47.72767        41.82856         2.94814
O         60.91284        59.08288         1.62775
H         60.19919        59.35708         2.27611
O         46.37492        59.50702         1.19457
H         45.62666        60.10339         1.41476
O         50.11418        62.82340        -0.16381
H         50.23706        62.77046        -1.13359
O         48.42664        42.20165        -1.15326
H         48.56304        41.30234        -1.52115
O         52.87608        52.56359        -1.76731
H         52.38682        53.27144        -2.25769
O         43.79150        37.70137         1.54966
H         43.55559        36.76203         1.71171
O         50.24213        48.38829        -1.23773
H         50.17877        47.42470        -1.41282
O         38.98137        59.41123         1.78905
H         39.82260        59.82788         2.07329
O         34.91182        55.96351         1.85647
H         34.20379        56.07477         2.57408
O         43.00124        44.48395        -1.41809
H         42.17153        44.82628        -1.81429
O         46.49051        37.30158         1.61235
H         45.64344        37.59509         2.02965
O         36.06584        50.29664        -1.68219
H         36.68840        50.75032        -2.28840
H         29.46811        56.71745         0.21606
H         28.25141        58.80133         0.56710
H         30.40846        62.51512         1.02646
H         28.25354        61.27518         0.88087
H         31.77473        52.35710         0.06323
H         30.61762        54.63024        -0.19922
H         32.81862        62.55130         0.77361
H         34.36024        48.01230         0.61643
H         33.06755        50.24250         0.60808
H         35.27333        62.58160         0.19941
H         36.84988        43.73580         0.40070
H         35.59665        45.86783         0.40338
H         37.72017        62.59102        -0.26076
H         39.37026        39.59441         1.02133
H         38.12253        41.60593         0.47415
H         40.20426        62.58358        -0.40695
H         41.77646        35.27579        -1.00245
H         40.45977        36.98566        -0.06758
H         42.66831        62.58853        -0.36910
H         45.20559        32.29875        -2.38480
H         43.03836        33.37272        -1.81832
H         45.13346        62.60633        -0.56597
H         47.35662        33.48521        -2.00914
H         48.58850        35.50829        -1.37005
H         47.70858        62.56865        -0.28613
H         49.82664        37.50318        -0.68059
H         51.07351        39.49541        -0.00084
H         49.95177        61.59218         1.46979
H         52.31119        41.59381         0.39599
H         53.54902        43.69200         0.41781
H         52.51941        62.54126         0.31124
H         53.88105        46.10367         2.22809
H         56.04703        48.10859         1.11076
H         54.98045        62.60754         0.23261
H         57.26265        50.27592         1.16371
H         58.49184        52.41656         1.05760
H         57.48723        62.65619        -0.10485
H         59.75308        54.56198         0.82188
H         60.92136        56.66578         0.80615
H         59.75154        62.30434        -1.29481
H         61.73059        58.47619        -1.13521
H         61.57528        60.77995        -1.98042
