         640
 CSIRO Nanostructure Databank - Neutral Graphene Oxide Data Set
C         22.97433        27.43538        -0.18196
C         22.97216        28.76863         0.04337
C         23.11626        31.67312         0.83501
C         23.07971        33.08939         0.76072
C         23.00498        36.01140         0.58443
C         22.99961        37.38504         0.58532
C         22.98721        40.31060         0.61472
C         22.95953        41.66308         0.53979
C         23.19152        44.46036         1.43301
C         23.25997        45.78994         1.88109
C         25.40776        24.56297        -0.36785
C         24.21450        25.26921        -0.28823
C         25.45188        27.37371        -0.17824
C         24.20889        26.67247        -0.17569
C         25.46730        28.80104        -0.09763
C         24.23910        29.45470         0.50065
C         25.34463        31.69270        -0.17721
C         24.20304        30.95808         0.39758
C         25.42016        33.15595         0.03884
C         24.20231        33.83808         0.38361
C         25.43001        35.98700         0.21481
C         24.20798        35.28054         0.39866
C         25.43682        37.41249         0.26003
C         24.20657        38.12766         0.43110
C         25.43788        40.26736         0.30879
C         24.20027        39.55014         0.43203
C         25.44165        41.66603         0.31944
C         24.17524        42.46255         0.17034
C         25.52025        44.52202         0.68519
C         24.28134        43.82084         0.83705
C         25.50969        45.97896         0.89643
C         24.39285        46.58215         1.63045
C         25.74998        48.57447         2.12152
C         24.51993        47.91730         2.07909
C         27.97131        23.09724        -0.60221
C         27.90477        24.53111        -0.42791
C         26.66000        25.23206        -0.39796
C         27.89473        27.39065        -0.45290
C         26.67095        26.66433        -0.34763
C         27.87626        28.80845        -0.54733
C         26.63560        29.49718        -0.39886
C         27.83289        31.75676        -0.96896
C         26.55945        30.95867        -0.64843
C         27.92496        33.04169        -0.10698
C         26.62892        33.83860        -0.06781
C         27.88764        35.97861        -0.10578
C         26.66270        35.26667         0.03238
C         27.89933        37.39919        -0.10314
C         26.67215        38.12771         0.11393
C         27.89777        40.27225        -0.10810
C         26.67972        39.53687         0.16539
C         27.89815        41.65701        -0.07924
C         26.74310        42.36600         0.56158
C         27.98499        44.53550         0.37189
C         26.71321        43.86079         0.38441
C         28.08514        45.89271         0.79176
C         26.88016        46.70201         0.97750
C         28.25907        48.47722         2.03654
C         26.95593        47.95629         1.73241
C         28.39599        49.77335         2.66442
C         30.31996        23.10934         0.19447
C         29.12498        22.41594        -0.41127
C         30.36836        24.56165        -0.21755
C         29.13507        25.25465        -0.35728
C         30.36006        27.39461        -0.52988
C         29.13705        26.68321        -0.46162
C         30.34877        28.82578        -0.66708
C         29.11086        29.53857        -0.69222
C         30.32299        31.65544        -0.90821
C         29.11327        30.95602        -0.81515
C         30.31259        33.16498        -1.13803
C         29.13285        33.86178        -0.48289
C         30.35910        35.98700        -0.43246
C         29.13050        35.24770        -0.33226
C         30.35577        37.39213        -0.49765
C         29.11280        38.11945        -0.35445
C         30.33059        40.25905        -0.60657
C         29.11417        39.53577        -0.40231
C         30.35374        41.68383        -0.60018
C         29.05709        42.45789        -0.59989
C         30.42661        44.46570         0.11519
C         29.17039        43.82066         0.04960
C         30.52954        45.78223         0.65107
C         29.34113        46.47877         1.05739
C         30.78139        48.26766         2.11409
C         29.42019        47.77192         1.66659
C         30.82746        49.76153         2.35173
C         29.60447        50.39677         2.76294
C         32.83378        20.26812        -0.08124
C         31.64894        20.97154         0.02610
C         32.83754        23.09145        -0.05521
C         31.63023        22.38284         0.00746
C         32.84276        24.55028        -0.14120
C         31.58899        25.25731        -0.27880
C         32.83253        27.38538        -0.51384
C         31.59698        26.68016        -0.45710
C         32.83639        28.80581        -0.71816
C         31.57904        29.53254        -0.79792
C         32.79405        31.68806        -1.18967
C         31.54570        30.94181        -0.93909
C         32.79257        33.14120        -0.90045
C         31.62784        33.81715        -0.77848
C         32.86719        35.99226        -0.67826
C         31.64630        35.23067        -0.22977
C         32.82631        37.39721        -0.84663
C         31.57741        38.12028        -0.70330
C         32.75873        40.27630        -1.03438
C         31.56213        39.53831        -0.76561
C         32.77645        41.68038        -1.00445
C         31.55868        42.39376        -0.71722
C         32.81019        44.52835        -0.47948
C         31.61315        43.81326        -0.39406
C         32.91847        45.85805         0.03407
C         31.78671        46.46247         0.65581
C         33.11012        48.45301         1.15669
C         31.91406        47.75060         1.25507
C         33.31872        49.72666         1.94370
C         32.03400        50.43617         2.32483
C         33.36952        52.46093         2.71424
C         32.17096        51.79620         2.76217
C         35.36533        18.80678        -0.25630
C         35.32495        20.22711        -0.20109
C         34.07484        20.94500        -0.15250
C         35.31849        23.07222        -0.07597
C         34.07911        22.37136        -0.10401
C         35.31033        24.54548         0.24780
C         34.04044        25.25514        -0.14714
C         35.30323        27.37704        -0.39573
C         34.06450        26.67586        -0.35035
C         35.30376        28.78753        -0.58133
C         34.06917        29.48164        -0.76725
C         35.35033        31.66022        -0.87481
C         34.10088        30.92175        -1.06953
C         35.34579        33.09400        -0.90333
C         34.08332        33.82542        -0.46726
C         35.25873        35.98166        -1.14132
C         34.07478        35.29359        -0.84944
C         35.27161        37.40308        -1.19634
C         34.03009        38.08928        -1.10931
C         35.29936        40.29920        -1.41942
C         33.98140        39.53332        -1.36668
C         35.22741        41.74829        -1.18374
C         34.02442        42.41014        -1.11729
C         35.27589        44.63332        -1.01457
C         33.95761        43.92579        -1.24715
C         35.33949        45.92768        -0.55733
C         34.14732        46.58867        -0.04220
C         35.44980        48.69757         0.26589
C         34.22900        47.90075         0.45989
C         35.49888        50.01237         0.68476
C         34.24709        50.69166         1.19772
C         35.76234        52.53379         2.11552
C         34.51963        51.91263         2.05931
C         35.99346        53.66642         3.00076
C         37.80384        18.80772        -0.18739
C         36.55972        18.12346        -0.24979
C         37.79361        20.23069        -0.16780
C         36.55137        20.94055        -0.17773
C         37.79225        23.09698        -0.10891
C         36.53999        22.37783        -0.11921
C         37.79030        24.53010        -0.16349
C         36.57226        25.25536        -0.16349
C         37.79651        27.35871        -0.46348
C         36.56390        26.65737        -0.33162
C         37.78835        28.80118        -0.59070
C         36.54812        29.50302        -0.63888
C         37.79876        31.62782        -0.89268
C         36.56338        30.92938        -0.79403
C         37.78284        33.02653        -1.45779
C         36.51032        33.78072        -1.15742
C         37.76704        35.97460        -1.24204
C         36.49406        35.23505        -1.55636
C         37.76764        37.38292        -1.14862
C         36.52436        38.11670        -1.21550
C         37.74656        40.24129        -0.96654
C         36.56238        39.55226        -1.18187
C         37.78373        41.71600        -0.91470
C         36.50043        42.48914        -1.00932
C         37.79344        44.61676        -1.20524
C         36.50145        43.92108        -1.52147
C         37.82222        45.95821        -0.92383
C         36.59048        46.68164        -0.60740
C         37.79973        48.85644        -0.69159
C         36.60001        48.04236        -0.34984
C         37.85828        50.29282        -0.24350
C         36.60766        50.97620         0.31176
C         38.09471        52.72259         1.33828
C         36.88829        52.05281         1.34181
C         38.21084        54.11602         1.94630
C         37.12949        54.38576         2.95591
C         40.28103        15.97952         0.00426
C         39.09487        16.66386        -0.08323
C         40.27613        18.81386        -0.11031
C         39.05702        18.09256        -0.13396
C         40.26245        20.25375        -0.11738
C         39.02986        20.95516        -0.12595
C         40.26424        23.10402        -0.09470
C         39.02332        22.38998        -0.12108
C         40.26671        24.52937        -0.10436
C         39.03317        25.23656        -0.21499
C         40.28468        27.35182        -0.33408
C         39.03149        26.65298        -0.36031
C         40.32199        28.79746        -0.76175
C         39.00019        29.51859        -0.62669
C         40.27117        31.66285        -0.73522
C         39.01044        30.93451        -0.72977
C         40.23529        33.15889        -0.59382
C         38.99387        33.83098        -1.09795
C         40.22941        35.95476        -1.10169
C         38.98117        35.23551        -1.13433
C         40.22949        37.37560        -1.08891
C         39.00989        38.07566        -1.01300
C         40.27374        40.26316        -1.08828
C         39.03070        39.53100        -0.62687
C         40.25699        41.68223        -1.25442
C         39.05336        42.39580        -1.19592
C         40.29253        44.49406        -0.87381
C         39.06680        43.86960        -1.53577
C         40.29162        45.99441        -0.99983
C         39.09816        46.66722        -0.91047
C         40.35374        48.83356        -0.72951
C         39.07766        48.15042        -1.16526
C         40.37461        50.19627        -0.32952
C         39.18415        50.91020         0.00725
C         40.51962        52.81539         0.77696
C         39.26596        52.15568         0.68344
C         40.66625        54.07800         1.47614
C         39.61716        54.38274         2.52388
C         40.76874        56.60134         2.79638
C         39.78419        55.75797         3.12289
C         42.75950        15.99099         0.11929
C         41.52277        16.67884         0.03205
C         42.76538        18.79129        -0.04689
C         41.52242        18.10004        -0.03835
C         42.75122        20.24634        -0.25534
C         41.48965        20.98312        -0.13345
C         42.74802        23.11686         0.11911
C         41.50377        22.39125        -0.08333
C         42.72666        24.56240         0.20368
C         41.49613        25.25326         0.02717
C         42.71560        27.44228         0.35925
C         41.47020        26.68312        -0.06075
C         42.75185        28.86898        -0.10814
C         41.43272        29.58769        -0.07195
C         42.74315        31.67689        -0.76041
C         41.47168        31.01005        -0.57268
C         42.74413        33.10683        -1.06701
C         41.49682        33.83761        -1.06328
C         42.66792        35.97370        -1.54543
C         41.45286        35.21840        -1.22507
C         42.68987        37.42395        -1.34185
C         41.48293        38.11151        -1.16392
C         42.71428        40.23196        -1.49798
C         41.47793        39.54626        -1.21857
C         42.69761        41.65386        -1.66333
C         41.51382        42.38629        -1.49693
C         42.71437        44.55620        -1.52787
C         41.54549        43.82544        -1.39668
C         42.75686        45.98567        -1.27878
C         41.55377        46.69551        -1.07665
C         42.82383        48.79047        -0.82426
C         41.56321        48.11780        -0.88919
C         42.84677        50.19762        -0.53988
C         41.64418        50.86197        -0.21609
C         42.89185        52.96392         0.12403
C         41.68628        52.23215         0.19549
C         42.87001        54.45368         0.33709
C         41.75707        54.87364         1.27213
C         43.17512        56.74807         2.10589
C         41.78030        56.31616         1.71908
C         43.95189        16.68312         0.16478
C         45.24608        18.83812         0.26820
C         43.98709        18.10312         0.08848
C         45.25903        20.24835         0.37901
C         44.06027        21.01740        -0.00999
C         45.12386        23.14641         0.90726
C         43.94730        22.43449         0.30148
C         45.19951        24.58053         0.43868
C         43.97173        25.27722         0.26120
C         45.19819        27.39337        -0.02928
C         43.99867        26.69935         0.11637
C         45.21339        28.82687        -0.24240
C         43.93478        29.53604        -0.31620
C         45.22045        31.57060        -1.00722
C         43.92648        30.94559        -0.68733
C         45.24430        33.09007        -1.20621
C         43.95037        33.78708        -1.19509
C         45.19932        35.98318        -1.16012
C         43.99999        35.22090        -1.48689
C         45.19545        37.37589        -1.25089
C         43.93801        38.10841        -1.43047
C         45.26145        40.16786        -1.83360
C         43.93096        39.50912        -1.54837
C         45.23670        41.67457        -1.77378
C         43.95396        42.35259        -1.99336
C         45.24489        44.55724        -1.73292
C         43.95595        43.88077        -1.93822
C         45.25210        45.96767        -1.53196
C         44.01407        46.68146        -1.29472
C         45.29953        48.80809        -0.95214
C         44.02297        48.07201        -1.02204
C         45.28397        50.28779        -0.94146
C         44.07540        50.93256        -0.58079
C         45.31793        53.05543        -0.34609
C         44.08493        52.32787        -0.28298
C         45.37710        54.39371         0.21992
C         44.23062        55.00087         0.72623
C         44.27870        56.17181         1.57059
C         47.64327        18.82738         0.71398
C         46.46859        18.14717         0.43177
C         47.64851        20.21924         0.91098
C         46.44148        20.95025         0.74982
C         47.60959        23.13004         0.90923
C         46.43315        22.40154         0.81103
C         47.65587        24.55236         0.64129
C         46.42617        25.25422         0.37930
C         47.66109        27.34743        -0.02614
C         46.46074        26.67680         0.07435
C         47.72178        28.76826        -0.51110
C         46.42114        29.51030        -0.37162
C         47.67028        31.65802        -0.53326
C         46.47108        30.92181        -0.60383
C         47.65387        33.11329        -0.59754
C         46.46622        33.80686        -0.85038
C         47.64403        36.00841        -0.62326
C         46.34418        35.26863        -0.49573
C         47.62531        37.42742        -0.75323
C         46.40586        38.10016        -1.00396
C         47.67272        40.28740        -1.15222
C         46.34514        39.60148        -0.92029
C         47.67853        41.65971        -1.43015
C         46.42549        42.37362        -1.67467
C         47.70527        44.51168        -1.71020
C         46.44527        43.82417        -1.72789
C         47.71653        45.94862        -1.75157
C         46.49807        46.63946        -1.59975
C         47.68288        48.87628        -1.89293
C         46.55398        48.08684        -1.31372
C         47.66622        50.36237        -1.70596
C         46.46373        51.02735        -1.12444
C         47.68967        53.22700        -1.09042
C         46.47225        52.41723        -0.83820
C         47.75509        54.52247        -0.38596
C         46.68193        55.03053         0.26547
C         50.20893        20.30314         1.16656
C         48.88652        20.92112         1.31597
C         50.13692        23.18146         1.18300
C         48.86307        22.45786         1.28571
C         50.11868        24.58572         0.93165
C         48.89001        25.22876         0.61394
C         50.00188        27.45945         0.86308
C         48.98265        26.63467         0.06891
C         50.07591        28.90503         0.41123
C         48.91802        29.56121        -0.01286
C         50.07798        31.72698         0.08840
C         48.89980        30.97983        -0.16964
C         50.05984        33.16936         0.00551
C         48.86053        33.85904        -0.29745
C         50.03393        36.06730        -0.16649
C         48.84302        35.30980        -0.38541
C         50.06544        37.47348        -0.34017
C         48.86276        38.16929        -0.66313
C         50.12494        40.29715        -0.89405
C         48.88110        39.57886        -0.90126
C         50.13583        41.69055        -1.16050
C         48.91756        42.38463        -1.43316
C         50.22411        44.51346        -1.83378
C         48.91647        43.79359        -1.62372
C         50.17536        46.01095        -1.62284
C         48.97187        46.67401        -1.76222
C         50.22375        48.90072        -1.84047
C         48.97958        48.12349        -2.20985
C         50.16728        50.33209        -1.79574
C         48.97064        51.05684        -1.70586
C         50.27048        53.20050        -1.42004
C         48.96457        52.52932        -1.57751
C         51.34486        21.04163         1.28498
C         52.57814        23.22715         1.45102
C         51.34231        22.48386         1.34968
C         52.57708        24.64616         1.28389
C         51.34934        25.33876         1.00625
C         52.53080        27.50113         1.04651
C         51.33952        26.75023         0.91405
C         52.50800        28.93927         0.92684
C         51.28738        29.63089         0.60355
C         52.50057        31.79166         0.61576
C         51.28841        31.04987         0.43534
C         52.47831        33.22666         0.54000
C         51.26023        33.89269         0.28944
C         52.52505        36.14425         0.45248
C         51.20376        35.35841         0.35471
C         52.53706        37.54311         0.00620
C         51.31758        38.21051        -0.27539
C         52.58233        40.32309        -0.56138
C         51.33893        39.60306        -0.57793
C         52.59302        41.73320        -0.71260
C         51.36737        42.44720        -1.01119
C         52.56260        44.62440        -0.71365
C         51.38436        43.82048        -1.18396
C         52.61133        46.05143        -1.21400
C         51.42834        46.73580        -1.53123
C         52.68743        48.86516        -1.58275
C         51.44361        48.18217        -1.69093
C         52.75031        50.31457        -1.84227
C         51.43817        51.09066        -1.91654
C         51.42136        52.53371        -1.59824
C         54.95805        23.29285         1.93885
C         53.78250        22.57449         1.78179
C         54.98795        24.68327         1.75180
C         53.79418        25.38108         1.41908
C         54.95363        27.58304         1.45278
C         53.77580        26.82302         1.27932
C         54.93263        29.00021         1.38739
C         53.70968        29.67997         1.06683
C         54.94851        31.83055         0.95980
C         53.71341        31.10351         0.89442
C         54.94202        33.22763         0.73415
C         53.72421        33.96068         0.62343
C         54.99713        36.09672         0.40394
C         53.76974        35.37176         0.46128
C         55.01050        37.51154         0.16158
C         53.78469        38.21602        -0.09459
C         55.06060        40.30573        -0.47459
C         53.81250        39.61338        -0.37746
C         55.05238        41.70379        -0.70768
C         53.83566        42.44382        -0.73232
C         55.07691        44.58363        -0.85217
C         53.86225        43.86836        -0.84421
C         55.07916        46.02915        -0.93308
C         53.85756        46.74019        -1.12921
C         55.12565        48.87355        -1.14424
C         53.88855        48.16705        -1.29268
C         55.11521        50.31598        -1.19041
C         54.00057        51.01142        -1.51477
C         57.38528        24.84826         2.66236
C         56.27746        25.40340         1.86304
C         57.34309        27.70107         2.27275
C         56.24791        26.91419         1.68489
C         57.29439        29.11480         2.18027
C         56.12439        29.75546         1.63531
C         57.35292        31.87286         1.64109
C         56.15366        31.14969         1.37328
C         57.50928        33.22754         1.12069
C         56.20538        33.95152         0.60188
C         57.44941        36.11275         0.72311
C         56.22572        35.40889         0.57985
C         57.46202        37.53049         0.50866
C         56.24944        38.20968         0.14657
C         57.53092        40.28738        -0.13941
C         56.29156        39.59972        -0.19971
C         57.64361        41.66265        -0.62947
C         56.29952        42.42766        -0.93888
C         57.55681        44.57311        -0.77373
C         56.32192        43.88444        -0.84485
C         57.55334        46.00884        -0.80135
C         56.31842        46.72657        -0.91016
C         57.60170        48.83562        -0.89546
C         56.34065        48.15986        -0.97229
C         58.42347        25.61993         3.06576
C         59.51413        27.83690         3.36566
C         58.44361        27.05401         2.86598
C         59.50007        29.21237         3.23815
C         58.40609        29.88172         2.63203
C         59.51373        32.13421         2.75498
C         58.42393        31.30216         2.36801
C         59.57401        33.47555         2.41613
C         58.60403        34.07261         1.57826
C         59.81176        36.22531         1.38884
C         58.63392        35.45169         1.20155
C         59.83360        37.57481         1.12444
C         58.66683        38.26226         0.68970
C         59.85114        40.46592         0.63129
C         58.69165        39.67366         0.40242
C         59.88597        41.82169         0.35188
C         58.80648        42.47285        -0.28459
C         60.00522        44.63084        -0.48652
C         58.79781        43.87823        -0.55130
C         60.00288        46.00220        -0.59582
C         58.78063        46.71633        -0.72488
C         58.77645        48.14259        -0.77431
O         51.68227        35.90844         1.63501
O         52.17464        50.74930        -3.13445
O         45.33266        32.16486        -2.34292
O         33.49717        31.26940        -2.39874
O         46.25898        48.33766         0.10518
O         56.68816        26.02365         0.59658
O         34.60135        39.90888        -2.64917
O         26.01983        46.77042        -0.20937
O         47.28938        49.72290        -3.01814
O         57.17660        33.34226        -0.29390
O         48.07490        53.24883        -2.50978
O         43.35821        35.56782        -2.76642
O         43.87726        43.16356        -3.21842
O         48.73457        21.70129         2.54318
O         25.51227        31.28402        -1.63551
O         37.09565        42.31285         0.30083
O         43.59421        20.68801        -1.36958
O         57.14406        41.86476        -1.98315
O         37.55036        49.95726        -1.65731
O         34.08932        33.79469         0.95383
O         49.52405        26.52243        -1.29312
H         48.99504        25.84769        -1.76953
O         36.45443        35.20941        -3.03332
H         37.10864        34.52374        -3.32521
O         40.19831        44.17860         0.54376
H         40.98022        44.55825         0.99550
O         41.41619        57.11991         0.55417
H         41.90737        56.73632        -0.21328
O         49.50040        27.49879         2.23355
H         50.15176        27.98624         2.77997
O         36.41077        43.81933        -2.99251
H         36.38010        44.73625        -3.34396
O         26.97141        42.22517         2.03737
H         27.00324        41.26147         2.22575
O         31.77748        35.08953         1.22417
H         32.65918        34.60347         1.36125
O         28.75835        42.72650        -2.02283
H         29.53191        43.19649        -2.40224
O         27.75072        32.15927        -2.35682
H         26.79739        32.07930        -2.61560
O         47.94642        28.67250        -1.96803
H         48.73768        28.09092        -2.08380
O         33.98629        49.34433         3.17610
H         33.40110        48.70756         3.64076
O         35.31835        24.60539         1.73052
H         36.12187        24.13245         2.03636
O         40.65107        28.79336        -2.18193
H         39.94579        28.30774        -2.65835
O         30.14644        33.39001        -2.57065
H         29.29220        32.96290        -2.83368
O         49.04633        47.99940        -3.66817
H         48.62372        48.81470        -4.03282
O         24.33929        29.17682         1.94767
H         24.33894        28.20148         2.05581
O         41.03495        29.67349         1.34393
H         41.60448        30.34373         1.77724
O         38.04643        55.05284         0.84639
H         37.16776        54.89239         0.44278
O         39.23941        43.95433        -2.97819
H         38.38969        43.67453        -3.39161
O         39.12167        39.54592         0.85270
H         38.29719        39.14770         1.20452
O         28.15236        32.57042         1.25952
H         28.38595        33.34380         1.81572
O         37.82833        32.84124        -2.94647
H         37.09002        32.23904        -3.18617
O         30.08845        23.11063         1.65221
H         29.26234        23.61519         1.81170
O         40.21278        33.36754         0.88552
H         41.09352        33.10622         1.22967
O         42.60370        27.50096         1.83161
H         41.83320        28.09214         2.02140
O         45.63375        39.81899        -3.19525
H         45.00266        40.25328        -3.80694
O         46.01068        35.29097         0.96444
H         46.82007        35.01288         1.44597
O         50.49308        44.39698        -3.29157
H         49.84380        44.96922        -3.75599
O         39.78782        53.41561         3.59443
H         40.68106        53.53929         3.97698
O         36.03645        51.76578        -0.79951
H         36.24415        51.25403        -1.61981
O         42.56701        55.07443        -0.97846
H         41.75195        54.64469        -1.31730
O         44.83906        23.21514         2.35645
H         45.59947        23.66458         2.78398
O         33.63641        44.14319        -2.66782
H         34.36568        43.72852        -3.18538
O         39.08957        48.23174        -2.62911
H         38.75501        49.13034        -2.85829
O         24.03688        42.77195        -1.27274
H         24.10326        41.92513        -1.76347
O         33.51681        51.13854         0.02427
H         34.16774        51.64214        -0.52510
O         52.35153        44.77841         0.75433
H         52.37242        43.87780         1.14418
O         45.94384        39.93153         0.44800
H         46.58456        39.51148         1.05949
O         31.01266        47.66159         3.44565
H         30.25200        47.91478         4.01160
H         22.03875        26.90557        -0.41744
H         22.03209        29.33855         0.01287
H         22.24368        31.14703         1.24752
H         22.15762        33.59509         1.07508
H         22.05244        35.47886         0.70344
H         22.04190        37.90658         0.70653
H         22.04727        39.77959         0.81879
H         21.99445        42.18230         0.62643
H         22.24639        43.91819         1.57193
H         22.39453        46.23359         2.39435
H         25.37313        23.46621        -0.41536
H         23.25783        24.72703        -0.30066
H         25.77456        49.57399         2.57672
H         23.63942        48.41276         2.51416
H         27.07503        22.56073        -0.94564
H         27.49575        50.31003         2.98994
H         29.14374        21.33024        -0.57902
H         29.63212        51.42683         3.14366
H         32.79748        19.17115        -0.07483
H         30.71097        20.41082         0.13262
H         33.42237        53.46804         3.15116
H         31.30786        52.31275         3.20443
H         34.43237        18.23041        -0.30381
H         35.22246        53.92993         3.73802
H         36.53407        17.02705        -0.29281
H         37.25071        55.24234         3.63429
H         40.28531        14.88115         0.05352
H         38.15831        16.09159        -0.10013
H         40.83905        57.57965         3.29831
H         39.08723        56.03877         3.92818
H         42.75858        14.89256         0.16726
H         43.28357        57.62827         2.75792
H         44.88426        16.11183         0.26013
H         45.26508        56.57612         1.84415
H         48.57221        18.25288         0.82872
H         46.51121        17.05557         0.32989
H         48.68856        55.10117        -0.41721
H         46.78027        56.00853         0.75678
H         50.28561        19.22747         0.95563
H         50.28919        54.28507        -1.24638
H         52.30983        20.52212         1.20811
H         52.37381        53.07944        -1.55854
H         55.88030        22.75149         2.18755
H         53.80373        21.48833         1.93612
H         56.03818        50.87217        -0.98246
H         54.04916        52.10417        -1.60866
H         57.36027        23.78763         2.94967
H         57.64173        49.93113        -0.94375
H         59.24964        25.17121         3.63720
H         60.36970        27.33592         3.84074
H         60.36054        29.78805         3.60426
H         60.32289        31.71523         3.36746
H         60.41376        34.07627         2.79166
H         60.73583        35.73289         1.72025
H         60.77728        38.12014         1.25347
H         60.73762        40.01132         1.09166
H         60.78498        42.39185         0.62284
H         60.96284        44.10549        -0.37102
H         60.94799        46.56277        -0.56190
H         59.73430        48.67956        -0.71947
