         630
 CSIRO Nanostructure Databank - Neutral Graphene Oxide Data Set
C         23.06602        27.49319        -1.78730
C         23.09417        28.85565        -1.66056
C         23.23754        31.84670        -2.08496
C         23.30039        33.19815        -2.14157
C         23.23009        36.12488        -1.69337
C         23.19846        37.48274        -1.45808
C         23.10303        40.37209        -0.93635
C         23.05621        41.71299        -0.63176
C         22.95510        44.56909        -0.03898
C         22.94633        45.94163         0.03108
C         25.44117        24.61315        -1.47696
C         24.33662        25.25991        -1.87300
C         25.59955        27.50279        -1.79374
C         24.29426        26.73873        -2.01328
C         25.53762        28.94493        -1.51179
C         24.31455        29.60296        -1.57018
C         25.56325        31.77734        -1.21663
C         24.22759        31.07685        -1.24810
C         25.57758        33.19828        -1.19906
C         24.40758        33.93397        -1.56278
C         25.55983        36.03260        -0.93919
C         24.39616        35.35205        -1.42369
C         25.52285        37.44029        -0.69629
C         24.32193        38.17965        -0.94210
C         25.38997        40.26342        -0.11818
C         24.27157        39.60175        -0.68108
C         25.39231        41.66681         0.09580
C         24.19322        42.40512        -0.13007
C         25.37968        44.51535         0.38414
C         24.16589        43.82683         0.08401
C         25.38157        45.96058         0.39985
C         24.16058        46.66622         0.19112
C         25.36230        48.77914         0.15713
C         24.17520        48.08319         0.10847
C         27.95741        23.15421        -0.73800
C         27.95220        24.56684        -1.00048
C         26.64355        25.32353        -0.89724
C         27.96203        27.44694        -1.10106
C         26.78497        26.75831        -1.34506
C         27.97762        28.89956        -1.07316
C         26.76859        29.62209        -1.19423
C         27.98793        31.74037        -0.79862
C         26.76229        31.05316        -1.05871
C         27.98230        33.16005        -0.62725
C         26.77672        33.89168        -0.84192
C         27.93439        35.98573        -0.22736
C         26.75997        35.30655        -0.67729
C         27.88558        37.38304         0.05855
C         26.66715        38.07922        -0.13648
C         27.84534        40.21778         0.69609
C         26.54457        39.46588         0.30619
C         27.84871        41.67391         0.60011
C         26.61051        42.36787         0.44510
C         27.83719        44.47645         0.88256
C         26.58323        43.78037         0.55448
C         27.84623        46.00546         0.83204
C         26.58777        46.69869         0.50948
C         27.86512        48.81105         0.35884
C         26.59972        48.10099         0.34441
C         27.91068        50.22143         0.30293
C         30.39817        22.98902        -1.01729
C         29.10501        22.42316        -0.62963
C         30.40732        24.52133        -1.22518
C         29.15284        25.26726        -1.04391
C         30.40973        27.40754        -0.75328
C         29.20256        26.71472        -0.93847
C         30.41814        28.84777        -0.60293
C         29.19778        29.58054        -0.78513
C         30.40663        31.68953        -0.33980
C         29.19719        31.00213        -0.65339
C         30.39240        33.09832        -0.12388
C         29.17170        33.84277        -0.25502
C         30.30725        35.93935         0.43397
C         29.14676        35.25813        -0.02165
C         30.31471        37.34441         0.60903
C         29.09274        38.07675         0.44855
C         30.32938        40.19143         0.76338
C         29.11000        39.48034         0.61095
C         30.32990        41.62685         0.77258
C         29.10186        42.35091         0.66234
C         30.33014        44.49616         0.67203
C         29.12145        43.77982         0.70894
C         30.33702        45.94408         0.56204
C         29.12200        46.67532         0.56113
C         30.33751        48.78974         0.26410
C         29.09999        48.08753         0.37608
C         30.34813        50.20903         0.23581
C         29.11261        50.90263         0.26364
C         32.86639        20.22702        -0.13063
C         31.68678        20.89023        -0.42674
C         32.88676        22.97976        -0.63515
C         31.67104        22.28267        -0.67810
C         32.93134        24.45171        -0.81998
C         31.69765        25.26283        -1.05467
C         32.82152        27.35856        -0.26996
C         31.66544        26.69952        -0.64964
C         32.85069        28.79616        -0.07197
C         31.61168        29.52676        -0.27966
C         32.79885        31.64797         0.21015
C         31.61561        30.95786        -0.13765
C         32.80154        33.04954         0.38184
C         31.58305        33.75451         0.25976
C         32.78763        35.81848         1.14667
C         31.50708        35.13893         0.73912
C         32.75396        37.31009         1.30762
C         31.51641        38.06095         0.96036
C         32.77516        40.22000         1.41821
C         31.54138        39.45443         0.96434
C         32.80273        41.65634         0.95183
C         31.57330        42.34949         0.81201
C         32.80972        44.47218         0.59262
C         31.57491        43.77496         0.67473
C         32.81569        45.90206         0.40983
C         31.57192        46.62811         0.36724
C         32.77028        48.75639        -0.05338
C         31.57085        48.05785         0.19920
C         32.81859        50.18892        -0.01603
C         31.60604        50.91278         0.20277
C         32.87096        52.97894         0.37746
C         31.66573        52.31150         0.40063
C         35.37992        18.91060         0.71841
C         35.35214        20.24450         0.24904
C         34.10588        20.91076        -0.08511
C         35.37186        23.01522        -0.38953
C         34.11152        22.30678        -0.34968
C         35.38821        24.45364        -0.34212
C         34.09041        25.12767        -0.17279
C         35.34111        27.31149         0.10629
C         34.05674        26.60180         0.04946
C         35.32906        28.74724         0.55126
C         34.02452        29.45120         0.26739
C         35.29502        31.64360         0.25463
C         34.02962        30.90744         0.64029
C         35.29119        33.04068         0.34411
C         34.05944        33.75706         0.59486
C         35.30220        35.87433         0.89055
C         34.07158        35.13005         0.87066
C         35.30766        37.26927         1.06894
C         34.06690        38.03320         1.31272
C         35.27608        40.17080         1.08359
C         34.07327        39.49644         1.14449
C         35.29148        41.63155         0.96174
C         34.03371        42.33684         0.84299
C         35.28614        44.45591         0.51010
C         34.04510        43.75804         0.63472
C         35.29511        45.87948         0.30552
C         34.03970        46.57581         0.25154
C         35.29428        48.70603        -0.41777
C         34.01037        47.98285        -0.19619
C         35.30299        50.22896        -0.63757
C         34.05186        50.90587        -0.11015
C         35.34841        53.02796         0.05417
C         34.08088        52.29505         0.08740
C         35.36884        54.43439         0.16019
C         37.80862        18.96489         0.99852
C         36.57234        18.30383         1.09751
C         37.84372        20.29109         0.42918
C         36.58552        20.94073         0.10851
C         37.84462        22.99888        -0.60622
C         36.58077        22.29826        -0.31223
C         37.82885        24.51390        -0.50460
C         36.55133        25.19796        -0.27374
C         37.78631        27.37651        -0.13619
C         36.53789        26.63783        -0.07158
C         37.77011        28.79726        -0.14152
C         36.53259        29.52663         0.05246
C         37.69442        31.68887        -0.53339
C         36.49437        30.91157        -0.02407
C         37.74501        33.11354        -0.01585
C         36.53864        33.78261         0.28439
C         37.77888        35.85402         0.70391
C         36.55228        35.17109         0.62271
C         37.79755        37.23363         1.32803
C         36.52753        38.01841         1.08542
C         37.78183        40.14225         1.34148
C         36.51530        39.40707         1.13230
C         37.77095        41.65502         1.19226
C         36.49263        42.33887         0.89539
C         37.76382        44.44529         0.49293
C         36.52147        43.75188         0.62941
C         37.76932        45.85642         0.22323
C         36.52965        46.56383         0.17165
C         37.75431        48.72885        -0.38375
C         36.52790        48.07656         0.21242
C         37.79129        50.21430        -0.26580
C         36.59641        50.90233        -0.21086
C         37.81543        53.04398         0.07528
C         36.58161        52.33292        -0.02780
C         37.80365        54.45932         0.24653
C         36.56020        55.13102         0.25341
C         40.18095        16.54624         2.66336
C         39.01608        17.14366         2.24038
C         40.27741        18.93986         1.17625
C         39.03995        18.34280         1.46549
C         40.33935        20.10814         0.22673
C         39.06832        20.91482         0.17080
C         40.33870        23.02793        -0.02807
C         39.16407        22.22934        -0.56347
C         40.25463        24.49077         0.33309
C         39.05952        25.23797        -0.18809
C         40.28015        27.34634        -0.15055
C         39.03111        26.63372        -0.13823
C         40.23235        28.77397        -0.46628
C         38.98117        29.53481        -0.29999
C         40.20806        31.68883        -0.38922
C         39.00640        30.95172        -0.35876
C         40.22180        33.11975        -0.26542
C         38.97531        33.80984         0.01373
C         40.24792        35.88889         0.47064
C         38.99386        35.18994         0.38904
C         40.23673        37.27941         0.81531
C         39.06118        38.00399         1.05156
C         40.24669        40.18769         1.11827
C         39.06779        39.42904         1.17888
C         40.25071        41.62069         0.94310
C         39.03707        42.34337         0.88302
C         40.25232        44.43504         0.45841
C         39.01892        43.73883         0.60024
C         40.25599        45.85556         0.20315
C         39.01885        46.53509         0.03947
C         40.29367        48.72439        -0.47774
C         39.01906        47.94234        -0.42196
C         40.26293        50.18818        -0.29385
C         39.06802        50.90157        -0.19843
C         40.27087        53.06413         0.07414
C         39.06652        52.34419        -0.03039
C         40.27497        54.46428         0.36014
C         39.04537        55.18028         0.40954
C         40.26671        57.26354         0.74214
C         39.07188        56.58438         0.60837
C         42.66182        16.52575         2.77436
C         41.44264        17.12920         2.36536
C         42.75177        18.97780         1.37508
C         41.48655        18.35053         1.63186
C         42.76522        20.28742         0.76201
C         41.60081        20.93105         0.37283
C         42.76941        23.13783         0.29266
C         41.56253        22.36891         0.16755
C         42.76532        24.55860         0.22103
C         41.54162        25.25339         0.13165
C         42.77242        27.39619        -0.08968
C         41.51466        26.66352        -0.04681
C         42.77644        28.78871        -0.22406
C         41.53109        29.52261        -0.50724
C         42.71950        31.67226        -0.86143
C         41.53533        31.00015        -0.17486
C         42.69839        33.21909        -0.78799
C         41.44736        33.83537        -0.25485
C         42.72991        35.87947         0.25700
C         41.47533        35.20120         0.16835
C         42.73491        37.33443         0.44491
C         41.51343        37.97630         0.99373
C         42.78723        40.20595         0.93149
C         41.53019        39.47852         1.17776
C         42.74893        41.61403         0.82177
C         41.49439        42.31841         0.77013
C         42.73484        44.41149         0.34317
C         41.48924        43.72179         0.53610
C         42.74010        45.85842         0.25336
C         41.49969        46.54780         0.15181
C         42.75872        48.77218         0.25699
C         41.57817        47.99201        -0.16528
C         42.78682        50.14149         0.11217
C         41.56836        50.87606        -0.32076
C         42.79227        53.05728         0.35360
C         41.56500        52.39491        -0.13392
C         42.76395        54.45046         0.58615
C         41.51466        55.16238         0.53946
C         42.73648        57.28488         0.85591
C         41.50021        56.57014         0.71314
C         43.87220        17.12276         2.49472
C         45.23964        19.04487         1.63757
C         43.95054        18.37123         1.81303
C         45.29555        20.34327         1.09528
C         44.06493        20.94428         0.55449
C         45.30055        23.19960         0.45699
C         44.05346        22.43982         0.28094
C         45.25830        24.57290         0.27563
C         44.01685        25.28555         0.15976
C         45.26694        27.43674        -0.01828
C         44.01837        26.68985         0.02581
C         45.24818        28.85295        -0.24073
C         43.99883        29.53004        -0.34236
C         45.18223        31.36816        -1.32168
C         43.96476        30.86577        -0.82792
C         45.20543        33.51803        -1.13930
C         43.96501        33.98733        -0.66707
C         45.23863        35.94921         0.10372
C         43.96776        35.26783        -0.05637
C         45.29313        37.31651         0.48579
C         44.02708        38.07611         0.51882
C         45.23981        40.19262         0.87918
C         44.01569        39.51017         0.88993
C         45.22934        41.60144         0.72999
C         43.98008        42.30826         0.65609
C         45.20377        44.36933         0.03077
C         43.94845        43.69959         0.36926
C         45.20622        45.93632         0.03733
C         43.94502        46.58891         0.32200
C         45.23965        48.75510         0.64173
C         43.93522        48.00966         0.82809
C         45.21745        50.14239         0.63905
C         43.98964        50.89546         0.42903
C         45.21693        53.02671         1.01448
C         43.98351        52.29719         0.51061
C         45.22156        54.50843         0.74237
C         43.99587        55.19361         0.75153
C         43.93179        56.62678         0.84851
C         47.66645        19.09207         1.88398
C         46.46229        18.43501         2.02676
C         47.73397        20.42922         1.40894
C         46.51825        21.07242         1.02914
C         47.74936        23.18278         0.75852
C         46.53935        22.47656         0.68995
C         47.72353        24.65797         0.66158
C         46.54583        25.28291        -0.04023
C         47.73715        27.49599        -0.03320
C         46.50156        26.78131         0.07280
C         47.72515        28.87961        -0.34788
C         46.47817        29.55124        -0.47160
C         47.66914        31.68576        -1.38140
C         46.43962        30.87253        -0.99456
C         47.69378        33.13899        -0.78985
C         46.46852        33.92201        -0.64369
C         47.69826        35.88091         0.24067
C         46.46946        35.23549        -0.04173
C         47.74094        37.25621         0.56436
C         46.51053        37.97177         0.70144
C         47.74753        40.10764         0.73197
C         46.50533        39.41521         1.20097
C         47.69946        41.51567         0.41860
C         46.46030        42.30070         0.54789
C         47.67627        44.43997         0.30904
C         46.47963        43.68962         0.29244
C         47.69035        45.86608         0.25864
C         46.48547        46.60523         0.25657
C         47.69432        48.70974         0.31876
C         46.49015        48.03352         0.47709
C         47.79096        50.13498         0.59942
C         46.47949        50.88131         0.79762
C         47.68535        53.02413         0.42837
C         46.50012        52.34226         0.63112
C         47.65390        54.47025         0.44921
C         46.47969        55.16388         0.60306
C         50.23354        20.47468         1.50397
C         48.98741        21.13271         1.30416
C         50.23614        23.22672         0.82893
C         48.99637        22.52466         0.99169
C         50.26741        24.64924         0.57117
C         49.01295        25.42616         0.61906
C         50.19148        27.46283        -0.21058
C         48.98709        26.80535         0.08472
C         50.18871        28.85022        -0.55443
C         48.95015        29.59876        -0.63734
C         50.21082        31.68461        -1.35305
C         48.94138        30.93112        -1.05511
C         50.19204        33.06348        -0.66518
C         48.90909        33.71330        -0.42261
C         50.22999        35.79644         0.40721
C         48.91204        35.00173         0.42342
C         50.22194        37.28946         0.41171
C         49.02390        37.95090         0.62242
C         50.28923        40.15578         0.56451
C         49.04759        39.41386         1.00365
C         50.29868        41.56055         0.57484
C         49.01660        42.28759         0.39484
C         50.21788        44.52006         0.73233
C         48.92714        43.74717         0.66543
C         50.18313        45.93853         0.31766
C         48.95868        46.56947         0.19775
C         50.17191        48.75423        -0.15575
C         48.87745        47.99765        -0.27343
C         50.16076        50.18107        -0.17613
C         48.97156        50.90004         0.15895
C         50.12915        52.99290        -0.21553
C         48.93481        52.30351         0.13746
C         51.42437        21.12875         1.29953
C         52.69591        23.13201         0.55162
C         51.46670        22.49991         0.90064
C         52.66457        24.49426        -0.09307
C         51.43691        25.30664         0.23527
C         52.65293        27.35754        -0.31324
C         51.44832        26.72321        -0.07943
C         52.66041        28.73094        -0.82759
C         51.41845        29.51973        -0.81547
C         52.70683        31.60565        -0.97037
C         51.46867        30.89958        -1.05040
C         52.66245        33.11193        -1.08714
C         51.39536        33.70856        -0.49822
C         52.70545        35.91005        -0.28670
C         51.49383        35.10041         0.01158
C         52.68603        37.32980        -0.07035
C         51.48247        38.00485         0.27072
C         52.72064        40.18179         0.21552
C         51.50189        39.44444         0.37538
C         52.73169        41.60808         0.31847
C         51.50911        42.29020         0.51462
C         52.75594        44.52596         0.33845
C         51.51220        43.76300         0.68834
C         52.65035        45.95043        -0.05565
C         51.42424        46.62443        -0.00824
C         52.58937        48.75189        -0.57731
C         51.38079        48.05033        -0.25283
C         52.56285        50.16142        -0.76384
C         51.35673        50.89636        -0.47989
C         51.29713        52.31498        -0.50006
C         55.12340        23.11219         0.25378
C         53.94027        22.46357         0.56583
C         55.16196        24.54088         0.07993
C         53.96684        25.23782         0.04305
C         55.21171        27.41338        -0.20999
C         53.92823        26.73091         0.19794
C         55.23321        28.78913        -0.44848
C         53.98404        29.49575        -0.83854
C         55.11938        31.63850        -0.19909
C         53.90781        30.94799        -0.76968
C         55.11678        33.12723        -0.45804
C         53.92922        33.79947        -0.62914
C         55.14562        35.96309        -0.61930
C         53.90325        35.24340        -0.55567
C         55.14092        37.38774        -0.47284
C         53.91891        38.07113        -0.20615
C         55.18129        40.20944        -0.09929
C         53.94495        39.48707        -0.03418
C         55.20036        41.64661         0.00040
C         53.96642        42.34678         0.12927
C         55.14670        44.45969        -0.33009
C         53.96973        43.75935        -0.00150
C         55.06695        45.89236        -0.64564
C         53.83919        46.60946        -0.50305
C         54.94474        48.67978        -1.29956
C         53.79389        48.01254        -0.79355
C         54.88375        50.08771        -1.50790
C         53.74536        50.80584        -1.22634
C         57.66405        24.58091        -0.11375
C         56.44180        25.25318        -0.03516
C         57.66293        27.37912        -0.35719
C         56.43255        26.68199        -0.17294
C         57.66801        28.80241        -0.41016
C         56.46263        29.49870        -0.47369
C         57.65772        31.74690        -0.10323
C         56.43878        30.99310        -0.70465
C         57.59360        33.15262        -0.65559
C         56.38100        33.82603        -0.60069
C         57.59365        35.97206        -0.89978
C         56.35239        35.26247        -0.78347
C         57.60438        37.38446        -0.71483
C         56.37737        38.09408        -0.50414
C         57.64952        40.20425        -0.22456
C         56.39559        39.50773        -0.31515
C         57.66434        41.60275         0.06600
C         56.43213        42.37553        -0.02034
C         57.59053        44.59825        -0.50628
C         56.40562        43.78938        -0.25509
C         57.44505        45.75875        -1.46056
C         56.18924        46.55710        -1.17608
C         57.27734        48.53078        -2.17750
C         56.13344        47.92152        -1.56708
C         58.86382        25.26283        -0.37800
C         60.09043        27.36886        -0.88822
C         58.88406        26.65052        -0.51159
C         60.13193        28.71960        -0.92565
C         58.97674        29.50882        -0.43683
C         60.14321        31.79416        -0.82115
C         58.99012        31.00991        -0.32618
C         60.04087        33.05502        -1.26042
C         58.72712        33.77926        -1.42391
C         59.99496        35.98913        -1.23865
C         58.80103        35.27204        -1.16062
C         60.02452        37.36254        -0.98395
C         58.85014        38.07393        -0.69367
C         60.09045        40.11537        -0.01787
C         58.87502        39.48236        -0.33463
C         60.09527        41.42328         0.45364
C         58.89808        42.14222         0.49616
C         60.00445        45.10708        -0.24801
C         58.82844        44.37585         0.07014
C         59.92152        46.20858        -1.08855
C         58.67010        46.63674        -1.56533
C         58.51690        47.91638        -2.14428
O         45.17755        45.12992        -1.19609
O         47.29773        50.46618         1.95120
O         40.91070        29.13885        -1.76243
O         42.45654        32.46234        -2.03174
O         41.66871        38.55085         2.32729
O         37.76006        41.01294         2.52553
O         53.43577        28.91213        -2.07263
O         43.27155        37.98378        -0.77311
O         37.80624        23.80881        -1.82800
O         48.40685        41.92215        -0.85986
O         33.35811        37.67881         2.59969
O         34.71624        48.03280        -1.56092
O         27.79164        45.28302         2.11216
O         58.95527        43.41251         1.08715
O         32.64512        24.98764        -2.15155
O         41.74314        51.77937        -1.45838
O         33.83353        25.63173         1.17864
O         41.17914        48.28920        -1.55931
O         38.18696        48.15527        -1.63963
O         31.94323        35.19165         2.16538
O         26.92616        39.68241         1.70251
O         51.13445        35.26245         1.44917
O         44.20211        21.45185        -0.81602
O         59.31870        30.19040         0.85332
O         49.46623        44.19754         1.94968
O         25.11512        27.17041        -3.15149
O         45.15129        32.51982        -2.12258
O         30.39564        23.60204        -2.34752
O         48.20862        25.31138         1.86576
O         52.39593        44.25205         1.75416
O         32.66739        40.29719         2.87984
H         32.80356        39.37448         3.21384
O         58.35599        33.61732        -2.84068
H         57.80794        32.80121        -2.90943
O         40.04139        24.47693         1.82584
H         40.10595        25.40769         2.13230
O         46.79379        25.00883        -1.46612
H         45.99952        25.28577        -1.97047
O         56.53787        31.20995        -2.13970
H         55.74668        30.81273        -2.56530
O         39.49911        21.90331        -1.95862
H         39.10925        22.62442        -2.51112
O         46.49777        39.33566         2.66957
H         47.44082        39.25340         2.96108
O         57.25151        45.17176        -2.80610
H         57.18299        45.92066        -3.43628
O         52.52814        24.22053        -1.55408
H         53.28058        23.64177        -1.80455
O         53.85719        26.95065         1.66487
H         54.66748        26.56288         2.06013
O         23.70846        31.13131         0.13674
H         23.65885        32.07869         0.38771
O         57.52029        31.88069         1.33422
H         58.08291        31.17050         1.73405
O         41.84284        31.10198         1.25324
H         41.02763        30.91106         1.76299
O         35.25815        50.45790        -2.07603
H         34.91062        49.62678        -2.48182
O         50.28137        31.96344        -2.79580
H         49.34956        32.05235        -3.12724
O         49.19359        39.38437         2.50621
H         49.94252        38.78228         2.71138
O         45.13077        52.90107         2.48895
H         45.99952        53.17213         2.85588
O         54.98059        31.42489         1.22810
H         55.81159        31.75815         1.65440
O         37.81670        36.98073         2.77927
H         37.89497        37.84842         3.23143
O         26.34435        25.41492         0.54818
H         27.10814        25.85230         0.98159
O         47.63177        31.85113        -2.83937
H         46.75275        32.25247        -3.05184
O         34.00740        30.94690         2.13510
H         33.09811        30.71239         2.42110
O         35.48051        28.68458         2.01427
H         35.11852        29.53610         2.37298
O         36.51920        48.47083         1.62107
H         35.88198        47.89886         2.09885
O         43.72823        47.91615         2.28792
H         43.96788        48.78363         2.67925
O         37.48413        31.79995        -1.98552
H         38.32390        32.11584        -2.38248
O         48.60288        47.93712        -1.72772
H         49.34105        47.44593        -2.14710
O         52.60210        33.41742        -2.51819
H         51.81090        32.93805        -2.88148
O         40.43417        19.49471        -1.11412
H         40.28630        20.22396        -1.76635
O         48.75202        34.47695         1.77945
H         49.66493        34.37834         2.14531
H         22.12188        26.94378        -1.65862
H         22.14843        29.39637        -1.51093
H         22.39800        31.31304        -2.55386
H         22.51843        33.75242        -2.68058
H         22.32527        35.63225        -2.07348
H         22.26682        38.02473        -1.66671
H         22.20998        39.89859        -1.36395
H         22.12502        42.25946        -0.82934
H         22.00449        44.04320        -0.19642
H         22.00382        46.49650        -0.08050
H         25.43297        23.51368        -1.44172
H         23.44994        24.69174        -2.19628
H         25.34205        49.87084         0.04511
H         23.22607        48.61878        -0.03677
H         27.00193        22.67327        -0.48524
H         26.98022        50.80368         0.30350
H         29.05704        21.39797        -0.23644
H         29.09329        51.99933         0.22631
H         32.82891        19.14379         0.04685
H         30.75234        20.31486        -0.47732
H         32.87419        54.05819         0.57422
H         30.75060        52.88056         0.60894
H         34.44522        18.34430         0.82484
H         34.43270        55.00671         0.17270
H         36.53072        17.27508         1.47922
H         36.51992        56.22411         0.34234
H         40.14561        15.61158         3.24137
H         38.05602        16.67873         2.50111
H         40.26873        58.35402         0.88215
H         38.13514        57.15504         0.64883
H         42.63084        15.57392         3.32385
H         42.70331        58.37771         0.97306
H         44.79084        16.62758         2.83540
H         44.86052        57.20013         0.97040
H         48.58445        18.56973         2.18382
H         46.46858        17.41376         2.42900
H         48.58456        55.03633         0.31693
H         46.51221        56.26116         0.54806
H         50.25745        19.41236         1.78033
H         50.14120        54.09002        -0.25202
H         52.36033        20.56790         1.42152
H         52.19810        52.89745        -0.73565
H         56.05796        22.53725         0.26879
H         53.99212        21.40269         0.84784
H         55.76773        50.62531        -1.87520
H         53.75041        51.89249        -1.38502
H         57.70200        23.48768        -0.01923
H         57.20327        49.54982        -2.57824
H         59.79577        24.69112        -0.49327
H         60.97575        26.77894        -1.16880
H         61.05870        29.24173        -1.20119
H         61.12997        31.30933        -0.77544
H         60.94890        33.55210        -1.63100
H         60.93982        35.48355        -1.47787
H         60.99252        37.87926        -1.02284
H         61.03706        39.56222        -0.06547
H         61.02365        41.89466         0.80022
H         60.95253        44.82920         0.22947
H         60.81126        46.82599        -1.28215
H         59.41205        48.47862        -2.45100
