         244
 CSIRO Nanostructure Databank - Neutral Graphene Oxide Data Set
C          1.22428         2.08594         0.19061
C          1.22560         3.46879         0.34586
C          2.42197         1.39562         0.02657
C          2.43529         4.21048         0.29726
C          1.21481         6.40305         0.56611
C          1.17351         7.76440         0.71079
C          2.41642         5.62754         0.55544
C          2.37596         8.61318         1.03471
C          1.16092        10.76019         0.35365
C          1.15802        12.11751         0.02277
C          2.35258        10.02991         0.43661
C          2.35873        12.82004        -0.20005
C          1.17985        15.06986        -0.22419
C          1.17973        16.44082        -0.32049
C          2.39046        14.28818        -0.38177
C          2.37534        17.16762        -0.57497
C          2.44388        18.55887        -0.52934
C          3.66601         2.07088        -0.07872
C          3.66444         3.51186        -0.00560
C          4.84060         1.23305        -0.02567
C          4.89705         4.26863         0.06215
C          3.68909         6.37496         0.61926
C          3.66922         7.88096         0.70490
C          4.91307         5.54378         0.69312
C          4.90284         8.73807         0.78873
C          3.56404        10.70478         0.12487
C          3.56459        12.08602        -0.19026
C          4.83221         9.99956         0.23247
C          4.88173        12.83929        -0.23773
C          3.57181        14.93848        -0.65915
C          3.62165        16.41047        -0.97029
C          4.82401        14.16839        -1.01405
C          4.85057        17.05085        -0.30818
C          3.67669        19.23512        -0.62563
C          4.89951        18.54294        -0.57290
C          6.12629         1.64298        -0.39767
C          6.15334         3.76277        -0.34049
C          7.39499         1.18317        -0.00140
C          7.42083         4.25812         0.08919
C          6.16118         6.02086         1.12773
C          6.18990         8.19997         1.11007
C          7.40765         5.53181         0.74609
C          7.40273         8.60485         0.59848
C          6.05676        10.56452        -0.35818
C          6.06672        12.01346        -0.70641
C          7.38119         9.83250        -0.23571
C          7.38102        12.72786        -0.83813
C          6.13923        14.92366        -0.77634
C          6.13661        16.32205        -0.63028
C          7.37006        14.21594        -0.74709
C          7.35802        17.03661        -0.59866
C          6.13420        19.20077        -0.58995
C          7.36554        18.50210        -0.55186
C          8.57957         1.99889        -0.01184
C          8.58895         3.44348         0.07616
C          9.82063         1.31313         0.07167
C          9.84437         4.07669         0.68374
C          8.66152         6.32823         1.08008
C          8.63156         7.81727         0.64869
C          9.87794         5.58665         0.55570
C          9.78934         8.45726         0.28000
C          8.63473        10.61667        -0.32547
C          8.63251        11.97254        -0.57614
C          9.84948         9.89701         0.02438
C          9.90173        12.72247        -0.57604
C          8.59437        14.91739        -0.63715
C          8.57258        16.33115        -0.62995
C          9.86639        14.20429        -0.43975
C          9.88151        17.06025        -0.76299
C          8.58556        19.19682        -0.47915
C          9.83491        18.53957        -0.45946
C         11.06466         2.00259        -0.01166
C         11.06590         3.39560         0.13613
C         12.29742         1.31663        -0.32017
C         12.28594         4.14096        -0.31741
C         11.03226         6.25733         0.24262
C         11.05282         7.72771        -0.07617
C         12.29332         5.59083         0.05913
C         12.31438         8.40836         0.40488
C         11.05049        10.55583         0.17456
C         11.16079        11.97950        -0.15656
C         12.23511         9.86002         0.80287
C         12.34664        12.72942         0.32514
C         10.99929        14.87235        -0.06238
C         10.97838        16.35105        -0.00191
C         12.18606        14.20776         0.62769
C         12.26661        17.10081         0.14043
C         11.04646        19.22301        -0.32940
C         12.29728        18.54679        -0.20395
C         13.52076         1.98497        -0.33295
C         13.54882         3.42456         0.14121
C         14.73874         1.36424        -0.66489
C         14.77581         4.21075        -0.26862
C         13.50149         6.29260         0.14560
C         13.48688         7.72449         0.44844
C         14.74813         5.62825        -0.06553
C         14.76315         8.38809         0.93033
C         13.55571        10.57964         0.59309
C         13.51964        12.04514         0.54061
C         14.72372         9.89657         0.75435
C         14.78438        12.75567         0.69450
C         13.48189        14.97908         0.44288
C         13.51765        16.31771         0.20105
C         14.73946        14.24081         0.71853
C         14.78480        17.02827        -0.24185
C         13.51434        19.21479        -0.22258
C         14.76542        18.53199        -0.09177
C         15.94024         2.10608        -0.79357
C         15.91456         3.55258        -0.69026
C         17.17232         1.45425        -0.98960
C         17.09871         4.34971        -1.17525
C         15.98453         6.38391        -0.11098
C         16.01984         7.78106         0.29991
C         17.12365         5.75465        -0.60436
C         17.20946         8.51412         0.23872
C         16.01265        10.61194         1.08191
C         15.97049        12.09049         0.81370
C         17.26004         9.93395         0.55171
C         17.27219        12.83143         1.05952
C         16.02488        14.97518         0.63673
C         16.04425        16.41128         0.29421
C         17.26670        14.18282         0.32511
C         17.22822        17.09238         0.40383
C         15.96494        19.20854        -0.00673
C         17.23658        18.54554         0.19319
C         18.39634         2.17000        -0.97805
C         18.40559         3.59849        -0.98368
C         19.63654         1.46778        -0.91751
C         19.62356         4.28019        -0.92604
C         18.35044         6.53240        -0.79579
C         18.43170         7.89070        -0.24834
C         19.66970         5.75432        -0.99108
C         19.66430         8.53066        -0.18675
C         18.45785        10.64314         0.50217
C         18.51819        12.06648         0.66539
C         19.76044         9.87833         0.48566
C         19.72327        12.78687         0.54366
C         18.52047        14.97630         0.59567
C         18.46903        16.35850         0.65649
C         19.75635        14.24035         0.62800
C         19.72019        17.09978         0.86761
C         18.41120        19.25614         0.21710
C         19.69428        18.64390         0.60161
C         20.82983         2.14565        -0.80823
C         20.85262         3.56706        -0.79133
C         22.07453         4.28618        -0.64321
C         20.92411         6.44684        -0.68072
C         20.89987         7.85022        -0.47301
C         22.10400         5.66482        -0.56022
C         22.11650         8.60825        -0.48009
C         20.96888        10.69118         0.08648
C         20.96590        12.08728         0.27421
C         22.13641         9.97074        -0.28140
C         22.17765        12.85045         0.21960
C         20.98146        14.94490         0.60073
C         20.99857        16.39370         0.69251
C         22.19308        14.20524         0.41987
C         22.15957        17.14971         0.57612
C         20.95425        19.24572         0.19658
C         22.12897        18.54765         0.31503
O          6.16296         7.12066         2.00805
O         10.87109        12.27095        -1.58434
O          3.69981         7.28808        -0.63065
O         19.69228        18.06972         1.95057
O          6.57984         9.72670        -1.44951
O         15.42173        14.75098         1.96251
O          6.16286         2.74863        -1.28939
O         11.35036        16.88043         1.30551
O          6.61269        12.26101        -2.02960
O         18.94914         6.34437        -2.13675
O          2.39473         8.80553         2.48501
H          1.58384         9.29516         2.73673
O         12.01541         9.88083         2.24971
H         12.76316         9.39220         2.66198
O         14.81901        16.78243        -1.69599
H         15.60225        17.24910        -2.05762
O         13.51612         3.40329         1.59102
H         14.31218         2.93007         1.90950
O         20.00743         9.56315         1.91469
H         20.03390        10.41766         2.39696
O          5.19895        13.17152         1.14684
H          4.50833        13.78654         1.47607
O          3.76065        16.54321        -2.41413
H          4.06743        15.67309        -2.77053
O         11.84525        14.26846         2.04959
H         11.70490        15.22558         2.25687
O          8.79272         6.33811         2.54033
H          7.94689         6.70893         2.88747
O         10.27806        16.93895        -2.16754
H          9.55978        17.31671        -2.71728
O          9.79593         3.77000         2.12158
H          9.45169         4.57516         2.58213
O          4.69143        13.93900        -2.44260
H          5.45116        13.36230        -2.72147
O         11.10663         7.78728        -1.54700
H         11.96812         7.41063        -1.82774
O         17.37031        13.03145         2.50024
H         16.64075        13.66166         2.74027
O         16.14566        10.50471         2.55800
H         16.71215        11.26818         2.84486
O         17.21238        13.90851        -1.10059
H         18.02673        13.41866        -1.34442
O         12.28089         4.09650        -1.78232
H         11.45896         4.52791        -2.09806
O          4.66478        16.88809         1.13307
H          5.39422        17.36409         1.58331
O         16.92799         4.51550        -2.62676
H         17.64624         5.13220        -2.91281
O         14.82581         8.12664         2.36529
H         15.45779         8.78314         2.74992
H          0.27672         1.53209         0.24457
H          0.27438         3.97772         0.54908
H          2.41233         0.29724        -0.02204
H          0.25766         5.89052         0.38937
H          0.18968         8.25665         0.67538
H          0.19896        10.27457         0.57322
H          0.19260        12.63879        -0.01687
H          0.23563        14.55782         0.00322
H          0.24732        16.99832        -0.14262
H          1.52088        19.14331        -0.39346
H          4.71525         0.23589         0.42340
H          3.68716        20.33421        -0.68067
H          7.48971         0.17010         0.41801
H          6.15518        20.29963        -0.66040
H          9.81824         0.21322         0.03879
H          8.56225        20.29355        -0.38411
H         12.26032         0.24217        -0.55725
H         11.04195        20.32424        -0.31346
H         14.75832         0.28334        -0.87420
H         13.52504        20.30927        -0.34424
H         17.19752         0.35541        -1.03252
H         15.96090        20.30972        -0.01061
H         19.62290         0.36830        -0.92893
H         18.40072        20.33229        -0.01570
H         21.77830         1.59522        -0.72823
H         23.00982         3.71658        -0.54460
H         23.06518         6.16183        -0.37077
H         23.05421         8.10580        -0.75342
H         23.08448        10.50367        -0.43626
H         23.13280        12.33558         0.05347
H         23.15654        14.73124         0.40522
H         23.13865        16.65355         0.53299
H         20.94512        20.25477        -0.24090
H         23.07885        19.04525         0.07172
