         200
 CSIRO Nanostructure Databank - Neutral Graphene Oxide Data Set
C        -11.16604         0.68949         0.14702
C         -9.94476         1.45273         0.03570
C         -8.70979         0.72413        -0.10223
C         -7.49389         1.43981        -0.24331
C         -6.27245         0.71312        -0.26911
C         -5.01831         1.48043        -0.21635
C         -3.72064         0.72990        -0.22955
C         -2.48063         1.44943        -0.57161
C         -1.26481         0.74747        -0.60340
C         -0.01789         1.47719        -0.49410
C          1.21954         0.73993        -0.35733
C          2.45549         1.46290        -0.26171
C          3.69008         0.75364        -0.33380
C          4.91045         1.47638        -0.30757
C          6.19516         0.78040        -0.68795
C          7.44120         1.51580        -0.24269
C          8.72085         0.80416        -0.35725
C          9.96231         1.50994         0.02383
C         11.18472         0.71564        -0.01263
C         -9.92504         2.84662         0.09777
C         -8.70625         3.58926         0.00849
C         -7.47688         2.88368        -0.21329
C         -6.26993         3.61169        -0.35544
C         -5.03397         2.87200        -0.79986
C         -3.72747         3.60269        -0.59773
C         -2.53222         2.87670        -0.64431
C         -1.24901         3.58934        -0.78876
C         -0.01328         2.85842        -0.48083
C          1.15615         3.59018         0.11085
C          2.45948         2.87433        -0.11244
C          3.66561         3.56784         0.05645
C          4.89391         2.84261        -0.02370
C          6.14612         3.51874         0.35633
C          7.43300         2.83322         0.12394
C          8.66501         3.58503         0.33673
C          9.91437         2.85156         0.31085
C         -8.66868         4.99680         0.13170
C         -7.45643         5.71314         0.06398
C         -6.23134         5.00785        -0.19861
C         -4.97801         5.72822        -0.26731
C         -3.74007         5.03512        -0.47999
C         -2.52719         5.78043        -0.50723
C         -1.24483         5.09323        -0.75197
C          0.01935         5.79556        -0.39803
C          1.20380         5.07018        -0.16864
C          2.42881         5.74888         0.01282
C          3.66765         5.02187         0.17441
C          4.86448         5.72855         0.30930
C          6.13155         5.01210         0.55331
C          7.41651         5.73946         0.46272
C          8.62984         4.96959         0.47720
C         -7.40621         7.13103         0.23786
C         -6.20434         7.82890         0.18651
C         -4.96390         7.13008        -0.05868
C         -3.73511         7.85725        -0.10479
C         -2.52449         7.17553        -0.34369
C         -1.26015         7.95851        -0.63604
C          0.01170         7.19874        -0.32984
C          1.21582         7.89585        -0.09183
C          2.43950         7.17479         0.02523
C          3.67274         7.88091         0.16720
C          4.89412         7.15804         0.27482
C          6.14014         7.85236         0.35469
C          7.37910         7.12330         0.39874
C         -6.15820         9.25884         0.38346
C         -4.98134         9.95027         0.35593
C         -3.72268         9.29089         0.11764
C         -2.51778         9.98828         0.17369
C         -1.25805         9.35331        -0.04630
C         -0.05471        10.01451         0.12701
C          1.21603         9.33744         0.04431
C          2.43111        10.00955         0.17618
C          3.67322         9.30948         0.20555
C          4.92377         9.97760         0.30411
C          6.11570         9.27166         0.35696
C        -11.15907        -0.67647         0.16387
C         -9.92940        -1.43148         0.09492
C         -8.70073        -0.70256        -0.03914
C         -7.46999        -1.41918        -0.07542
C         -6.24472        -0.68624        -0.17888
C         -4.98803        -1.40490        -0.24078
C         -3.77279        -0.71908        -0.35757
C         -2.51881        -1.40780        -0.67652
C         -1.23324        -0.69068        -0.57696
C         -0.03545        -1.40009        -0.43737
C          1.21577        -0.66611        -0.36030
C          2.45929        -1.36002        -0.23112
C          3.68346        -0.68002        -0.28073
C          4.95113        -1.40276        -0.27269
C          6.19183        -0.69965        -0.36244
C          7.40602        -1.41468        -0.29307
C          8.70362        -0.69349        -0.34620
C          9.89809        -1.41139         0.24663
C         11.17311        -0.63929        -0.00341
C         -9.90751        -2.83025         0.16752
C         -8.68716        -3.56174         0.14593
C         -7.45871        -2.84164         0.03477
C         -6.20934        -3.54882         0.06983
C         -5.01283        -2.83128        -0.09850
C         -3.73204        -3.50946         0.09673
C         -2.50275        -2.90566        -0.46146
C         -1.22564        -3.58722        -0.23596
C         -0.02550        -2.85679        -0.30983
C          1.19358        -3.56375        -0.11692
C          2.43014        -2.80153         0.05956
C          3.75022        -3.56388         0.01543
C          4.95679        -2.80460        -0.28934
C          6.19686        -3.53019        -0.55734
C          7.45262        -2.81994        -0.33713
C          8.69632        -3.56344        -0.25676
C          9.89685        -2.88061        -0.10090
C         -8.65282        -4.98615         0.23535
C         -7.44805        -5.70352         0.25212
C         -6.19351        -4.98926         0.20768
C         -4.98847        -5.71341         0.23927
C         -3.70886        -5.01142         0.31893
C         -2.45463        -5.72678         0.06644
C         -1.23418        -5.00118        -0.03977
C          0.00061        -5.70994        -0.02654
C          1.22375        -4.97928        -0.03105
C          2.47268        -5.70607        -0.01226
C          3.70947        -5.03213        -0.12214
C          4.92195        -5.75045        -0.18535
C          6.18455        -5.06513        -0.48882
C          7.46661        -5.74405        -0.20338
C          8.64542        -5.01326        -0.21140
C         -7.40747        -7.13658         0.33617
C         -6.21359        -7.84737         0.30992
C         -4.95493        -7.14277         0.21144
C         -3.73091        -7.84062         0.13311
C         -2.47062        -7.13764         0.02052
C         -1.24019        -7.84087        -0.07184
C         -0.01182        -7.14241        -0.02061
C          1.23482        -7.85167         0.05069
C          2.45948        -7.13958         0.05162
C          3.70262        -7.84652         0.13989
C          4.92942        -7.15209         0.03018
C          6.19908        -7.84918         0.12542
C          7.40473        -7.15578         0.04950
C         -6.16242        -9.29072         0.41375
C         -4.98049        -9.96639         0.39677
C         -3.70848        -9.28895         0.20810
C         -2.52673        -9.98756         0.09529
C         -1.24358        -9.32447        -0.32747
C          0.02384        -9.99091         0.13753
C          1.22559        -9.29511         0.18605
C          2.48695        -9.96594         0.36613
C          3.69281        -9.27841         0.31910
C          4.96845        -9.95119         0.43471
C          6.15158        -9.27537         0.34724
O          0.91237         3.52328         1.57526
H          1.04133         2.59107         1.85392
O          6.16747        -4.37201        -1.78302
O         -3.57438        -4.05355         1.44296
O          3.14471        -3.13635         1.30091
O          6.06418         4.10049         1.71041
O          6.24417         0.83170        -2.15939
H          7.12428         0.46042        -2.41505
O         -1.20264        -9.48263        -1.81452
H         -0.40488        -9.00527        -2.12959
O         -2.64474        -2.35669        -1.80773
O         -1.16774         4.39287        -2.04211
O         -5.16965         2.66708        -2.24631
H         -5.11906         3.54476        -2.68059
O          8.89785        -0.00247        -1.61478
O         -1.27773         8.15578        -2.09351
H         -0.46052         8.64257        -2.33209
O         -4.30131         1.29552         1.03451
O          9.66836        -1.35679         1.70186
H         10.39394        -1.85037         2.13876
H         12.12361        -1.19444        -0.03742
H         12.14465         1.25359        -0.05980
H         10.84286         3.39412         0.54693
H          9.58363         5.51551         0.54899
H          8.32112         7.69247         0.37151
H          7.06826         9.81831         0.41885
H          4.94023        11.07708         0.33042
H          2.43658        11.10607         0.27113
H         -0.05876        11.07820         0.41349
H         -2.52897        11.05512         0.44780
H         -4.97757        11.03814         0.52021
H         -7.10455         9.78876         0.56796
H         -8.34257         7.67708         0.42875
H         -9.60633         5.54657         0.30453
H        -10.86934         3.39470         0.23762
H        -12.11791         1.23549         0.22740
H        -12.10620        -1.22919         0.25436
H        -10.85670        -3.37951         0.26233
H         -9.60514        -5.53510         0.29431
H         -8.35892        -7.68494         0.41525
H         -7.10985        -9.83983         0.52181
H         -4.97322       -11.06331         0.48352
H         -2.54079       -11.08721         0.15136
H          0.03241       -11.08822         0.23041
H          2.48864       -11.05888         0.49656
H          4.96898       -11.04003         0.59263
H          7.10300        -9.82051         0.43712
H          8.34864        -7.70612         0.18470
H          9.59667        -5.54522        -0.05309
H         10.83495        -3.44868         0.00438
