         420
 CSIRO Nanostructure Databank - Neutral Graphene Oxide Data Set
C         28.00892        27.36674         1.22545
C         27.97321        28.78830         1.11378
C         26.75657        29.51278         1.21747
C         27.95694        31.63128         1.05565
C         26.74725        30.89149         1.17473
C         27.95912        33.09858         1.00857
C         26.76025        33.82617         0.86690
C         27.98080        35.93909         0.76071
C         26.77669        35.20341         0.71079
C         27.99772        37.38452         0.51014
C         26.80846        38.06125         0.13295
C         27.97680        40.19299         0.04538
C         26.79225        39.42502        -0.06751
C         27.95213        41.63513        -0.07997
C         26.73071        42.35645        -0.23676
C         27.92370        44.48015        -0.23831
C         26.71526        43.72973        -0.30840
C         27.91894        45.89865        -0.30149
C         30.44509        27.37665         1.01553
C         29.20526        26.69242         1.20855
C         30.43683        28.77906         0.82519
C         29.18998        29.50091         0.93559
C         30.46053        31.63040         0.91593
C         29.16234        30.92042         0.94338
C         30.46860        33.11859         1.05237
C         29.17034        33.83118         1.06743
C         30.48719        35.93817         1.34815
C         29.18153        35.23980         0.99639
C         30.43710        37.51521         1.23522
C         29.19644        38.10755         0.58153
C         30.43389        40.25574         0.32340
C         29.19831        39.51195         0.32596
C         30.41134        41.65598         0.11513
C         29.16639        42.36095        -0.01782
C         30.37988        44.53994        -0.05116
C         29.16360        43.79196        -0.10569
C         30.35119        45.95847        -0.09416
C         29.09585        46.61364        -0.22499
C         32.98320        24.61878         1.25231
C         31.77638        25.28868         1.28262
C         32.90812        27.36810         0.65993
C         31.70581        26.67078         0.98384
C         32.87196        28.79148         0.41934
C         31.65524        29.46614         0.52138
C         32.87877        31.65334         0.19033
C         31.56379        30.92460         0.15144
C         32.80351        33.11999         0.05556
C         31.64652        33.87887         0.56495
C         32.92945        35.97373         0.56233
C         31.67498        35.25100         0.67517
C         32.90410        37.42676         0.67429
C         31.72106        38.14085         0.71124
C         32.87688        40.29262         0.21551
C         31.69502        39.57306         0.45423
C         32.86814        41.70592         0.00724
C         31.63044        42.39952         0.02935
C         32.86358        44.51841        -0.02004
C         31.63574        43.82339        -0.02332
C         32.84297        45.96851         0.21426
C         31.58842        46.71206         0.02717
C         32.87760        48.80513        -0.08334
C         31.65162        48.09715        -0.00786
C         35.46482        23.11888         0.49491
C         35.44829        24.53396         0.85961
C         34.16603        25.28952         0.87219
C         35.37924        27.32047         0.01648
C         34.13625        26.65631         0.57833
C         35.32483        28.83633         0.05538
C         34.11276        29.51740         0.16473
C         35.34999        31.69282        -0.02546
C         34.08562        30.97326         0.09443
C         35.38444        33.09884        -0.00028
C         34.13128        33.87607        -0.02423
C         35.43886        35.94512         0.43118
C         34.12485        35.28199         0.38933
C         35.47781        37.43004         0.45494
C         34.18600        38.15911         0.65439
C         35.40036        40.26238        -0.15916
C         34.17829        39.63023         0.38607
C         35.29689        41.67391        -0.52720
C         34.07862        42.42895        -0.19362
C         35.36420        44.57169        -0.34970
C         34.10272        43.83531        -0.17952
C         35.39244        45.98507        -0.25469
C         34.17641        46.73289         0.12109
C         35.36134        48.88165        -0.38088
C         34.11221        48.17659        -0.13532
C         35.38711        50.28760        -0.45023
C         37.91272        23.14417         0.36823
C         36.65862        22.45894         0.41171
C         37.95621        24.54800         0.33028
C         36.75388        25.29654         0.75603
C         37.87536        27.44102        -0.04024
C         36.69161        26.82472         0.68203
C         37.78801        28.79279        -0.32598
C         36.55876        29.53965        -0.12332
C         37.82694        31.67079        -0.27715
C         36.57511        30.95554        -0.15383
C         37.85262        33.08941        -0.17250
C         36.62679        33.81093        -0.03934
C         37.86522        35.94666        -0.15166
C         36.65249        35.22456        -0.00618
C         37.87979        37.37830        -0.28262
C         36.54838        38.07111        -0.40835
C         37.82644        40.27207        -0.58482
C         36.58280        39.57839        -0.33038
C         37.84360        41.67796        -0.67766
C         36.58354        42.42516        -0.78962
C         37.80797        44.57680        -0.75938
C         36.57887        43.88654        -0.61529
C         37.78547        45.99358        -0.78204
C         36.58720        46.70594        -0.51428
C         37.80591        48.88411        -0.68028
C         36.58360        48.16145        -0.51588
C         37.79765        50.30296        -0.73371
C         36.58010        50.98094        -0.63765
C         40.31037        20.25158        -0.16906
C         39.16810        20.93713        -0.05073
C         40.40294        23.08127        -0.08885
C         39.19770        22.35546         0.48403
C         40.34165        24.51383        -0.34647
C         39.13589        25.25512        -0.06948
C         40.23213        27.34421        -0.75894
C         39.09330        26.68689        -0.27113
C         40.25799        28.78862        -1.04980
C         38.96005        29.53957        -0.83427
C         40.27922        31.65456        -0.56880
C         39.03100        30.98209        -0.55378
C         40.29604        33.05002        -0.30210
C         39.09508        33.78806        -0.18277
C         40.30966        35.96595        -0.24766
C         39.10762        35.23457        -0.17001
C         40.32302        37.37376        -0.47909
C         39.06203        38.08209        -0.50001
C         40.26685        40.23322        -0.79601
C         39.06079        39.53821        -0.64523
C         40.28727        41.66202        -0.78772
C         39.06440        42.39705        -0.73662
C         40.30327        44.49891        -0.86221
C         39.06566        43.83127        -0.83102
C         40.35591        45.95719        -1.07036
C         39.01155        46.74275        -1.08385
C         40.29610        48.85209        -0.77362
C         39.05058        48.17959        -0.84679
C         40.31910        50.27199        -0.67847
C         39.07749        51.04066        -1.07510
C         40.25925        53.09723        -0.29027
C         39.10723        52.47627        -0.61565
C         42.83108        20.18878        -0.32510
C         41.62210        20.91959         0.19117
C         42.74509        22.96155        -0.90388
C         41.55330        22.36339        -0.28321
C         42.72777        24.46399        -1.15623
C         41.48387        25.17206        -0.80820
C         42.79157        27.36837        -1.21535
C         41.42914        26.59473        -1.08897
C         42.76907        28.81383        -0.93639
C         41.54300        29.52734        -0.92556
C         42.78275        31.63200        -0.62865
C         41.53272        30.92906        -0.71832
C         42.82278        33.04035        -0.42658
C         41.57433        33.73250        -0.09937
C         42.83601        35.96177        -0.39971
C         41.58699        35.27280        -0.07228
C         42.79851        37.36234        -0.63110
C         41.54932        38.05200        -0.66832
C         42.80154        40.24254        -0.91659
C         41.52381        39.47614        -1.16478
C         42.76797        41.62689        -0.86880
C         41.52837        42.36785        -0.81213
C         42.77882        44.52251        -0.64481
C         41.53761        43.78559        -0.78322
C         42.77019        45.94088        -0.48801
C         41.56197        46.69238        -0.69795
C         42.72035        48.81427        -0.26678
C         41.53300        48.10686        -0.61534
C         42.73984        50.22073        -0.18527
C         41.51509        50.95271        -0.38557
C         42.70924        53.04907         0.04647
C         41.51675        52.38088        -0.22277
C         43.97289        20.82902        -0.67037
C         45.23138        22.99311        -0.92810
C         44.04052        22.26797        -0.79942
C         45.23470        24.44713        -0.97318
C         44.02059        25.18684        -1.08070
C         45.24443        27.30633        -0.80374
C         44.02743        26.59585        -1.00519
C         45.23383        28.73739        -0.69943
C         44.00462        29.47965        -0.74969
C         45.24787        31.61695        -0.60593
C         44.02001        30.91242        -0.66741
C         45.26817        33.05126        -0.56661
C         44.03262        33.76900        -0.44805
C         45.27725        35.91610        -0.61689
C         44.04896        35.21897        -0.45864
C         45.27415        37.35881        -0.71065
C         44.04162        38.07696        -0.76416
C         45.28355        40.19179        -0.87990
C         44.05344        39.50777        -0.88853
C         45.31666        41.65921        -1.02794
C         44.01323        42.40810        -0.99801
C         45.23783        44.50202        -0.36266
C         44.02218        43.83935        -0.62871
C         45.22070        45.91438        -0.09204
C         43.98483        46.60715        -0.17924
C         45.24201        48.80176         0.26840
C         43.91960        48.04390         0.11035
C         45.23765        50.25220         0.03502
C         43.96841        50.95368         0.01522
C         43.92141        52.34886         0.12471
C         47.68456        23.00331        -0.89193
C         46.50362        22.32162        -0.91297
C         47.72656        24.43772        -0.82587
C         46.47186        25.14817        -0.85952
C         47.70303        27.27979        -0.62135
C         46.47282        26.57477        -0.77186
C         47.66412        28.68493        -0.47791
C         46.46148        29.42820        -0.51799
C         47.68742        31.58552        -0.43055
C         46.48981        30.88333        -0.50751
C         47.77476        33.02396        -0.85642
C         46.48959        33.76797        -0.60819
C         47.77141        35.86827        -0.64894
C         46.51387        35.18178        -0.63242
C         47.79369        37.32881        -0.99488
C         46.50179        38.06358        -0.74748
C         47.76357        40.19448        -0.70435
C         46.52316        39.48412        -0.77600
C         47.82909        41.68052        -0.99328
C         46.54340        42.40448        -0.70692
C         47.73211        44.47093        -0.15755
C         46.50972        43.77392        -0.41312
C         47.72137        45.87331         0.39000
C         46.45425        46.63987         0.09880
C         47.72422        48.77520         0.02704
C         46.49133        48.03350         0.12791
C         47.67295        50.15829        -0.12028
C         46.45703        50.87881        -0.16350
C         50.23544        24.46556        -0.89883
C         48.95409        25.13036        -0.71529
C         50.19096        27.24556        -0.53580
C         48.96496        26.56135        -0.56369
C         50.18238        28.69459        -0.55689
C         48.91880        29.38680        -0.18637
C         50.21836        31.61781        -0.13439
C         48.92957        30.89049        -0.12782
C         50.18570        33.06722        -0.08493
C         49.00554        33.74945        -0.35767
C         50.21593        35.90350        -0.22276
C         48.98738        35.18538        -0.41816
C         50.19357        37.34495        -0.22589
C         48.99478        38.05731        -0.46167
C         50.17031        40.18345        -0.11403
C         48.97085        39.47735        -0.44798
C         50.15964        41.62026        -0.03511
C         49.01870        42.36553        -0.38866
C         50.18370        44.49569         0.08511
C         48.97710        43.78433        -0.15638
C         50.23286        45.92822         0.10161
C         48.99861        46.64264         0.11269
C         50.23114        48.72805        -0.06379
C         48.99585        48.04784         0.02546
C         51.42440        25.10601        -0.81394
C         52.74307        27.33980        -0.79625
C         51.51268        26.51668        -0.29659
C         52.69320        28.72672        -0.15116
C         51.50118        29.50082        -0.36996
C         52.58788        31.62178         0.51761
C         51.39441        30.92718         0.00298
C         52.62443        33.09267         0.39875
C         51.42927        33.77790         0.13722
C         52.66768        35.89656         0.23763
C         51.43152        35.21063         0.05594
C         52.67700        37.35054         0.05971
C         51.39934        38.05886        -0.00312
C         52.52422        40.15182         0.64245
C         51.37490        39.46536         0.11245
C         52.35561        41.51882         1.00955
C         51.29110        42.29207         0.51124
C         52.61262        44.55995         0.62890
C         51.47389        43.72735         0.06481
C         52.82038        45.89806        -0.05759
C         51.47488        46.64182         0.04167
C         51.44050        48.03516        -0.04337
C         55.20548        27.32027        -0.30345
C         54.08254        26.66128        -0.62205
C         55.19258        28.68759         0.28015
C         53.83771        29.34940         0.50865
C         55.14110        31.54307         1.09755
C         53.80910        30.82832         0.83016
C         55.05739        33.06277         0.91647
C         53.86061        33.77615         0.62098
C         55.07482        35.93563         0.91160
C         53.87065        35.21640         0.55873
C         55.06748        37.37306         1.06578
C         53.94364        38.13626         0.52353
C         54.83651        40.23601         1.57026
C         53.75299        39.53258         0.93919
C         54.64263        41.62512         1.96637
C         53.34458        42.09400         1.84741
C         54.51882        44.94772         2.29780
C         53.27293        44.30757         1.77515
C         54.83170        46.17342         1.47645
C         54.01596        46.63447         0.51780
C         56.32128        29.61027         0.02252
C         56.27273        30.92404         0.30325
C         56.21967        33.79158         1.19604
C         56.22902        35.18579         1.20962
C         56.07225        38.10764         1.71645
C         55.99798        39.49601         1.89268
C         55.69105        42.55914         2.39138
C         55.66304        43.92130         2.41483
O         44.44533        48.39920         1.43691
O         52.87583        31.12799         1.92174
O         52.91708        43.20749         2.57630
O         42.02927        26.97037        -2.38150
O         39.70815        46.35943        -2.31781
O         34.33658        39.11488         1.76603
O         35.82649        36.71723         1.66356
O         41.65201        34.47708         1.16332
O         44.69078        42.14085        -2.29252
O         50.85193        29.30796        -1.71750
O         42.54712        23.51345        -2.25785
O         30.81245        32.23950         2.19617
O         33.31722        33.61918        -1.22662
O         48.88422        30.05252         1.11376
O         54.56521        28.65091         1.59290
O         35.74740        41.95243        -1.90820
O         39.40966        29.18419        -2.18755
O         33.60715        46.34207         1.41427
O         53.67113        37.85841        -0.88802
O         36.27351        24.81913         2.06357
O         36.07552        37.79169        -1.77537
H         36.67753        38.24639        -2.40277
O         47.70571        45.68920         1.86582
H         47.56360        46.57400         2.26639
O         51.78039        43.51819        -1.37769
H         52.50601        42.85996        -1.43719
O         52.64261        27.47181        -2.23572
H         51.89278        28.08966        -2.43271
O         41.76354        20.91725         1.64001
H         40.93575        21.31777         2.01199
O         55.46380        31.31908         2.49259
H         54.60690        31.24950         2.97170
O         30.67366        35.61363         2.76522
H         31.63444        35.61859         2.96143
O         54.27947        45.39566         3.65950
H         53.85062        44.64762         4.12890
O         51.64928        26.44271         1.15318
H         50.93671        25.86481         1.49808
O         41.46052        39.34566        -2.64155
H         41.60152        40.23978        -3.02110
O         31.11578        30.98173        -1.24809
H         31.86450        30.70563        -1.81765
O         47.94911        32.99124        -2.32858
H         47.09171        32.72113        -2.72143
O         53.11962        45.76816        -1.46443
H         52.50682        45.08088        -1.82901
O         47.95904        37.36367        -2.47513
H         48.06989        38.30607        -2.72832
O         39.09565        51.09847        -2.54968
H         39.94640        51.50784        -2.81517
O         39.39211        22.22862         1.94311
H         39.23124        23.10971         2.34398
O         30.35256        38.05295         2.58833
H         30.26992        37.27736         3.19771
O         35.46984        26.90912        -1.37829
H         34.71208        27.29761        -1.86306
O         47.99691        41.79191        -2.47363
H         47.10031        41.74026        -2.87306
O         36.72751        27.34049         2.02918
H         36.41708        26.61239         2.61943
H         27.06565        26.81683         1.35523
H         25.81527        28.95966         1.34836
H         25.78796        31.41749         1.27007
H         25.79441        33.30536         0.83071
H         25.81883        35.71781         0.56255
H         25.86677        37.50803         0.02663
H         25.83925        39.90782        -0.31980
H         25.77642        41.81563        -0.28629
H         25.76127        44.26591        -0.41621
H         26.95973        46.42610        -0.40542
H         29.19600        25.60036         1.32217
H         29.05478        47.71038        -0.26573
H         33.02288        23.55400         1.51939
H         30.87242        24.73555         1.56740
H         32.81291        49.89547        -0.20076
H         30.72787        48.68836        -0.07086
H         34.51859        22.58343         0.33676
H         34.45669        50.86235        -0.35765
H         36.64522        21.36962         0.27095
H         36.54037        52.07519        -0.71524
H         40.31266        19.20756        -0.51776
H         38.20977        20.46103        -0.30140
H         40.26365        54.17017        -0.04489
H         38.18267        53.06731        -0.67518
H         42.81845        19.08991        -0.26939
H         42.70115        54.13997         0.18227
H         44.86648        20.23211        -0.90495
H         44.84608        52.91413         0.30411
H         48.62167        22.43158        -0.87725
H         46.52803        21.22392        -0.91922
H         48.60058        50.73180        -0.24437
H         46.50259        51.96075        -0.34903
H         50.23567        23.41134        -1.21073
H         50.25834        49.82293        -0.13791
H         52.35251        24.55513        -1.02485
H         52.38034        48.60092        -0.10600
H         56.17820        26.80425        -0.34047
H         54.15822        25.62638        -0.98856
H         55.72066        46.75639         1.76409
H         54.29908        47.55767        -0.01214
H         57.18440        29.19876        -0.52379
H         57.12897        31.56256         0.03802
H         57.14031        33.25105         1.45661
H         57.16389        35.70292         1.46498
H         56.96028        37.58838         2.10409
H         56.83859        40.00570         2.38368
H         56.67403        42.10117         2.59431
H         56.61370        44.40304         2.70158
