         420
 CSIRO Nanostructure Databank - Neutral Graphene Oxide Data Set
C         27.82906        27.39758         0.24854
C         27.84329        28.81826         0.27649
C         26.63596        29.55202         0.43445
C         27.86868        31.65633         0.47121
C         26.65554        30.93122         0.52259
C         27.87968        33.11591         0.49948
C         26.66549        33.85909         0.57138
C         27.86642        35.97927         0.48066
C         26.66750        35.23896         0.60473
C         27.87170        37.42378         0.51590
C         26.70149        38.16827         0.83118
C         27.90901        40.27850         0.57979
C         26.72002        39.54375         0.84157
C         27.92344        41.71506         0.62117
C         26.72527        42.46773         0.80389
C         27.96587        44.55594         0.70440
C         26.74179        43.84053         0.84003
C         27.99246        45.97250         0.73380
C         30.26352        27.31036         0.23700
C         29.03430        26.67619         0.29396
C         30.34255        28.77523        -0.11604
C         29.07619        29.52502         0.21268
C         30.36125        31.62153         0.33725
C         29.09378        30.93169         0.32293
C         30.40261        33.10601         0.60179
C         29.08895        33.82095         0.41177
C         30.28016        35.95182        -0.01289
C         29.09737        35.25199         0.32184
C         30.23110        37.38611        -0.22258
C         29.05701        38.14270         0.22190
C         30.36213        40.26867         0.14641
C         29.10633        39.55878         0.28445
C         30.38260        41.68544         0.29387
C         29.15992        42.40763         0.47940
C         30.41355        44.54701         0.39770
C         29.18168        43.83525         0.53146
C         30.41196        45.96838         0.41549
C         29.18275        46.65559         0.58766
C         32.81439        24.48351         0.14523
C         31.61506        25.13740         0.07804
C         32.82872        27.31884         0.53906
C         31.51395        26.54722         0.44639
C         32.82839        28.79327         0.38988
C         31.61378        29.49519         0.29395
C         32.84108        31.68706         0.49385
C         31.57007        30.92324         0.34948
C         32.86938        33.10145         0.04363
C         31.56239        33.75338        -0.13346
C         32.81305        35.97250        -0.37079
C         31.52325        35.24704        -0.37237
C         32.83526        37.37715        -0.28941
C         31.58241        38.14961        -0.37417
C         32.83721        40.24782         0.03860
C         31.58792        39.57227        -0.03597
C         32.85411        41.67070         0.13027
C         31.62536        42.39492         0.22568
C         32.87775        44.52542         0.13788
C         31.64090        43.81949         0.26034
C         32.88306        45.95632         0.10585
C         31.66186        46.68444         0.24813
C         32.91210        48.77242         0.07206
C         31.70461        48.08924         0.22413
C         35.35534        22.97244         0.16380
C         35.35004        24.41451         0.58727
C         34.05653        25.16938         0.33358
C         35.31546        27.29877         0.27540
C         34.08138        26.56657         0.35146
C         35.30041        28.71613         0.33225
C         34.09540        29.44568         0.40338
C         35.37022        31.63129         0.06274
C         34.13735        30.92578         0.49335
C         35.32905        33.07521        -0.19405
C         34.04349        33.78327        -0.20653
C         35.25356        35.95538        -0.45370
C         34.03641        35.23752        -0.38846
C         35.28570        37.36271        -0.32864
C         34.06354        38.08988        -0.19421
C         35.31700        40.21222        -0.01764
C         34.07383        39.51929        -0.06515
C         35.33211        41.65079         0.02099
C         34.09778        42.37241         0.06614
C         35.33157        44.50841        -0.15402
C         34.10097        43.79833         0.03792
C         35.32262        45.91028        -0.23351
C         34.11591        46.66175        -0.07986
C         35.42778        48.85401        -0.10309
C         34.11741        48.09136        -0.09894
C         35.37816        50.27838        -0.62592
C         37.76290        23.04402        -0.24749
C         36.50977        22.34123        -0.15960
C         37.77562        24.43849        -0.19278
C         36.56879        25.17113         0.10136
C         37.77690        27.30970        -0.14543
C         36.54870        26.56667         0.09408
C         37.77957        28.69536        -0.11808
C         36.61121        29.46494         0.46541
C         37.77328        31.57620        -0.42738
C         36.53032        30.90491        -0.02316
C         37.76904        33.06978        -0.58722
C         36.49315        33.77515        -0.42768
C         37.79723        35.94973        -0.48879
C         36.51307        35.22572        -0.83519
C         37.79980        37.33315        -0.34512
C         36.54174        38.07280        -0.28300
C         37.82283        40.15319         0.11425
C         36.53748        39.45671        -0.08562
C         37.83494        41.67096         0.10152
C         36.55636        42.38532        -0.06953
C         37.83515        44.48347        -0.41392
C         36.57368        43.77652        -0.24447
C         37.84809        45.89156        -0.58697
C         36.55299        46.59873        -0.66742
C         37.85812        48.79483        -0.90503
C         36.54160        48.08103        -0.78572
C         37.83352        50.28060        -0.97311
C         36.49865        50.94301        -0.94746
C         40.33722        20.29390        -0.08064
C         39.15923        20.93490         0.03023
C         40.28242        23.08011        -0.56738
C         38.99893        22.27497        -0.64011
C         40.27130        24.44813        -0.58460
C         39.01392        25.16917        -0.40229
C         40.28588        27.23724        -0.09984
C         38.99881        26.55175        -0.33397
C         40.31835        28.70193        -0.28583
C         39.02644        29.43093        -0.39169
C         40.24021        31.58542        -0.14115
C         39.07429        30.89953        -0.22334
C         40.22688        33.06988         0.14718
C         39.02821        33.80794        -0.39269
C         40.29722        35.90403        -0.36987
C         39.03342        35.20585        -0.41316
C         40.30262        37.32620        -0.37960
C         39.06215        38.04218        -0.28820
C         40.29204        40.18570        -0.28449
C         39.08325        39.44750        -0.17046
C         40.27664        41.61802        -0.36521
C         39.09398        42.34837        -0.25323
C         40.30899        44.49310        -0.49826
C         39.06865        43.77350        -0.42949
C         40.30600        45.91950        -0.45154
C         39.06597        46.62032        -0.55524
C         40.26563        48.76279        -0.28538
C         39.09836        48.06194        -0.54252
C         40.19362        50.24856         0.03101
C         39.07471        51.01123        -0.63412
C         40.39694        53.05336        -0.64123
C         39.18869        52.37408        -0.85605
C         42.58894        20.17697        -1.13999
C         41.49330        20.93691        -0.69958
C         42.70493        23.03199        -1.20951
C         41.51451        22.35354        -0.80474
C         42.84874        24.48045        -1.03472
C         41.51992        25.22060        -1.00391
C         42.84435        27.33147        -0.35873
C         41.58844        26.54239        -0.29250
C         42.81690        28.70149         0.00824
C         41.51116        29.43442         0.27484
C         42.74621        31.63003         0.24721
C         41.57106        30.87175        -0.30439
C         42.76486        33.02901         0.11225
C         41.52803        33.76702        -0.15182
C         42.80338        35.84970        -0.60464
C         41.52343        35.13595        -0.36115
C         42.80411        37.34608        -0.56745
C         41.52557        38.07329        -0.41118
C         42.79381        40.20922        -0.48093
C         41.53241        39.47085        -0.41485
C         42.79529        41.60437        -0.55177
C         41.51474        42.32553        -0.87142
C         42.75973        44.49335        -0.44739
C         41.54178        43.79445        -0.53519
C         42.76314        45.92090        -0.31675
C         41.53247        46.63473        -0.33682
C         42.74333        48.74927         0.01794
C         41.52501        48.06611        -0.18371
C         42.72300        50.20417         0.44070
C         41.51718        50.94996        -0.06296
C         42.83224        53.02175        -0.18469
C         41.56917        52.32907        -0.27675
C         43.64653        20.81501        -1.78870
C         45.61347        23.39385        -1.80215
C         43.67560        22.21322        -1.82474
C         45.38631        24.59604        -1.10022
C         44.05240        25.20286        -0.93282
C         45.27434        27.34543        -0.28478
C         44.05448        26.63255        -0.54629
C         45.24726        28.74408         0.04054
C         44.00533        29.41956         0.16485
C         45.23438        31.58717         0.77820
C         43.91721        30.81361         0.76322
C         45.20699        33.09615         0.65219
C         43.97054        33.75696         0.24270
C         45.12141        35.93526         0.46397
C         44.13062        35.11784        -0.39166
C         45.23327        37.39092         0.04757
C         44.06674        38.07334        -0.28770
C         45.25748        40.21873        -0.35122
C         44.04346        39.50579        -0.38521
C         45.25172        41.64901        -0.40103
C         44.01236        42.34479        -0.47803
C         45.23405        44.48853        -0.35239
C         44.01362        43.77708        -0.44596
C         45.23295        45.92108        -0.23767
C         43.99823        46.62961        -0.19896
C         45.22293        48.75912         0.12551
C         43.98221        48.05297        -0.01518
C         45.23157        50.19618         0.23737
C         44.02517        50.92608         0.20597
C         44.00138        52.33860         0.03509
C         47.93119        23.27829        -1.16438
C         46.84353        22.72015        -1.80966
C         47.82751        24.57304        -0.61081
C         46.56838        25.24905        -0.61273
C         47.72483        27.33247         0.05325
C         46.52454        26.63974        -0.24226
C         47.68665        28.74813         0.19738
C         46.48487        29.46635         0.22460
C         47.68360        31.64938         0.45459
C         46.50559        30.90055         0.46610
C         47.72348        33.09010         0.59838
C         46.48520        33.83787         0.54066
C         47.66264        35.98501         0.75748
C         46.44626        35.21009         0.51457
C         47.69376        37.42086         0.44406
C         46.47400        38.09569         0.16226
C         47.68917        40.21979        -0.02564
C         46.49920        39.51085        -0.11865
C         47.75271        41.61004        -0.58491
C         46.47355        42.37717        -0.38708
C         47.74140        44.50100        -0.40993
C         46.48078        43.77583        -0.37033
C         47.71477        45.94308        -0.29008
C         46.46951        46.62972        -0.14343
C         47.69824        48.75002         0.18854
C         46.45860        48.05060         0.05181
C         47.67346        50.17018         0.34329
C         46.49528        50.86416         0.33249
C         50.25073        24.54464         0.03301
C         49.02498        25.23692        -0.13078
C         50.20159        27.28984         0.49926
C         48.99459        26.62808         0.13948
C         50.14931        28.74614         0.74885
C         48.96764        29.47380         0.20985
C         50.23737        31.67813         0.60363
C         48.97685        30.96461         0.28568
C         50.21575        33.09470         0.55502
C         48.95232        33.77364         0.61528
C         50.22871        35.98140         0.57037
C         48.98744        35.22945         0.82393
C         50.18997        37.40637         0.54623
C         48.93257        38.09246         0.50019
C         50.21943        40.32568         0.40027
C         48.90377        39.56127         0.45193
C         50.21189        41.73195        -0.06744
C         49.00614        42.38795        -0.28289
C         50.24614        44.50662        -0.81446
C         48.95819        43.80957        -0.44417
C         50.21284        46.01266        -0.57005
C         48.93102        46.66733        -0.22493
C         50.18244        48.67899         0.47652
C         48.93446        48.04252         0.10791
C         51.41362        25.20065         0.38771
C         52.68138        27.31064         0.89635
C         51.43137        26.60306         0.60346
C         52.66649        28.75391         1.19075
C         51.38943        29.52038         1.05706
C         52.67980        31.68196         0.69320
C         51.43974        30.98100         0.78235
C         52.64957        33.07786         0.41380
C         51.44280        33.81421         0.45052
C         52.64843        36.00419         0.24570
C         51.43604        35.27163         0.38338
C         52.66715        37.41260         0.32944
C         51.43309        38.13974         0.43661
C         52.69002        40.26955         0.22188
C         51.46160        39.55217         0.33979
C         52.69444        41.69654         0.11208
C         51.47573        42.43542        -0.07857
C         52.73561        44.53859        -0.21531
C         51.49520        43.82264        -0.28261
C         52.76476        45.96731        -0.16434
C         51.50478        46.74158        -0.26029
C         51.37999        48.04921         0.40042
C         55.14350        27.38380         0.81118
C         53.91829        26.67665         0.84431
C         55.19551        28.77240         0.78175
C         53.97751        29.54289         1.07064
C         55.16245        31.63743         0.48360
C         53.94342        30.98494         0.74031
C         55.18329        33.06048         0.21483
C         53.89967        33.74572         0.02786
C         55.18106        35.98260         0.10229
C         53.89762        35.29148        -0.05872
C         55.16215        37.41586         0.25449
C         53.92444        38.12556         0.27490
C         55.16642        40.27424         0.32252
C         53.92731        39.55246         0.26896
C         55.16936        41.69398         0.28406
C         53.93841        42.40389         0.08905
C         55.25840        44.52489        -0.30457
C         53.94978        43.80956        -0.08242
C         55.19440        45.97263         0.08314
C         54.00191        46.63908         0.07001
C         56.39594        29.50404         0.52389
C         56.38324        30.87129         0.43438
C         56.35155        33.81222         0.10185
C         56.35080        35.22141         0.05947
C         56.37639        38.15544         0.33922
C         56.38096        39.52769         0.38740
C         56.38011        42.46059         0.49377
C         56.42672        43.79504         0.28646
O         39.80769        29.02400        -1.61380
O         49.16589        30.24877        -1.02010
O         42.82921        36.59678        -1.86808
O         53.40279        29.17739         2.37620
O         33.56806        31.44449         1.75392
O         45.24242        32.42276         1.98864
O         49.48219        40.18931         1.67535
O         44.63382        22.83694        -2.63579
O         36.24068        47.30974        -1.96696
O         50.92681        46.73706        -1.63665
O         37.88468        40.92398         1.37103
O         30.76138        37.81243        -1.53042
O         32.11559        26.88054         1.75637
O         37.74059        32.17048        -1.77993
O         50.43999        29.15542         2.13204
O         31.31981        34.25842        -1.46837
O         38.00403        49.46745        -2.21332
O         41.00127        26.64944         1.04206
O         48.29432        35.66263         2.04914
O         53.80053        34.45373        -1.25467
O         42.57092        50.15778         1.91754
H         41.61751        49.94853         2.08821
O         35.47205        24.38045         2.06082
H         35.46358        25.30995         2.37609
O         47.84062        41.39954        -2.05644
H         48.04166        42.27151        -2.46209
O         40.06755        33.14550         1.62332
H         40.19199        34.08220         1.88821
O         39.84163        50.26184         1.50225
H         39.72411        51.20482         1.75219
O         36.51265        35.19722        -2.31104
H         35.82421        34.56126        -2.60076
O         50.32664        44.31796        -2.26925
H         50.76915        45.12837        -2.62086
O         55.48303        44.52421        -1.77521
H         54.71201        44.97750        -2.17937
O         36.88899        29.55108         1.90522
H         36.11676        29.98086         2.33249
O         44.57153        35.94208         1.81370
H         45.28809        36.19045         2.43583
O         38.82546        21.98107        -2.07821
H         38.68763        22.83759        -2.53602
O         30.42100        28.77903        -1.61109
H         29.53799        28.50878        -1.94454
O         44.74374        34.89605        -1.68332
H         44.27295        35.48286        -2.32387
O         43.61662        30.55045         2.18518
H         43.93997        31.34286         2.68233
O         41.41409        42.26989        -2.34694
H         40.63379        42.80426        -2.60802
O         35.85681        48.93724         1.29571
H         35.13933        49.36626         1.80761
O         41.27163        25.58344        -2.40901
H         41.39114        24.77576        -2.95242
O         41.23166        29.48913         1.68360
H         42.04034        29.81766         2.15348
O         41.82839        30.77250        -1.73468
H         41.07898        30.25623        -2.12658
O         30.74708        33.28033         2.01990
H         30.14553        32.71668         2.55052
H         26.86894        26.86711         0.30791
H         25.68218        29.00840         0.48842
H         25.70054        31.45977         0.63843
H         25.70178        33.33823         0.63497
H         25.70610        35.76121         0.69701
H         25.76482        37.64960         1.07321
H         25.79149        40.07443         1.08841
H         25.76226        41.95032         0.90331
H         25.80623        44.40307         0.97076
H         27.05125        46.52446         0.86837
H         28.99058        25.58675         0.43887
H         29.16343        47.75300         0.60958
H         32.82898        23.40413        -0.05920
H         30.71741        24.60350        -0.26463
H         32.89335        49.87099         0.09162
H         30.78658        48.67934         0.33835
H         34.42939        22.38695         0.24478
H         34.41411        50.80679        -0.67198
H         36.49769        21.26621        -0.39166
H         36.43557        51.99379        -1.27096
H         40.46630        19.27445         0.31368
H         38.29795        20.45832         0.51941
H         40.46449        54.13393        -0.82536
H         38.32840        52.93306        -1.25227
H         42.56418        19.08131        -1.05993
H         42.84831        54.10871        -0.34782
H         44.44482        20.24064        -2.27578
H         44.94530        52.90023         0.00720
H         48.89079        22.74725        -1.17709
H         46.93124        21.76994        -2.35150
H         48.61499        50.72726         0.43352
H         46.52753        51.95595         0.44044
H         50.29461        23.45763        -0.11458
H         50.14525        49.67265         0.94357
H         52.33330        24.61200         0.50115
H         52.27208        48.52488         0.83052
H         56.07462        26.81244         0.68459
H         53.96941        25.58690         0.71480
H         56.13541        46.52128         0.23369
H         53.99409        47.72519         0.24091
H         57.33892        28.95139         0.40227
H         57.32964        31.39378         0.24304
H         57.32968        33.31508         0.15448
H         57.32848        35.72156         0.08153
H         57.33681        37.62381         0.35574
H         57.34392        40.05227         0.43825
H         57.27530        41.94654         0.87168
H         57.35484        44.35665         0.46936
