         234
 CSIRO Nanostructure Databank - Neutral Graphene Oxide Data Set
C          1.44548         2.20911        -1.41936
C          1.24779         3.50191        -0.79624
C          2.65000         1.63216        -1.70260
C          2.09147         4.56325        -0.98259
C          1.26536         5.99432         0.88595
C          1.42949         7.08115         1.73597
C          2.17488         5.78178        -0.16910
C          2.52256         7.94669         1.58032
C          1.29313        10.92724         1.93248
C          1.19495        12.23342         1.45887
C          2.49596        10.22576         1.79530
C          2.36049        12.90558         1.03708
C          1.17669        15.00270         0.35635
C          1.20084        16.28828        -0.23314
C          2.33477        14.34850         0.76237
C          2.38660        16.99679        -0.41228
C          2.51180        18.06315        -1.36354
C          3.93743         2.25122        -1.40701
C          4.06898         3.65851        -1.45637
C          5.04437         1.50525        -0.97351
C          5.18153         4.33096        -0.89289
C          3.24887         6.70455        -0.30399
C          3.50861         7.77679         0.58165
C          5.17285         5.74650        -0.72966
C          4.79065         8.55824         0.52349
C          3.62155        10.76938         1.13634
C          3.57062        12.17729         0.93757
C          4.82354        10.00544         0.76170
C          4.85473        12.90632         0.96540
C          3.56410        15.12437         0.91469
C          3.59165        16.57728         0.30919
C          4.86839        14.39286         1.05968
C          4.88611        17.15162        -0.06647
C          3.73584        18.57481        -1.69912
C          4.95729        18.09835        -1.09312
C          6.22469         2.14008        -0.46418
C          6.25684         3.58004        -0.35757
C          7.30908         1.40036        -0.00329
C          7.38348         4.26876         0.20995
C          6.12640         6.42354         0.03417
C          5.98956         7.85333         0.30073
C          7.33752         5.70726         0.33680
C          7.28863         8.55085         0.21685
C          6.00846        10.75362         0.52384
C          6.09117        12.17725         0.64562
C          7.27069        10.06189         0.21864
C          7.29327        12.90767         0.47239
C          6.16676        15.13920         0.86978
C          6.13151        16.61632         0.52075
C          7.39259        14.34678         0.57156
C          7.41955        17.39951         0.29280
C          6.21863        18.63923        -1.52432
C          7.42461        18.28927        -0.93381
C          8.53001         2.02552         0.58967
C          8.50941         3.53503         0.61792
C          9.76140         1.62105        -0.19676
C          9.75575         4.20510         1.02068
C          8.52716         6.43660         0.63734
C          8.52964         7.82045         0.55018
C          9.79155         5.72141         0.95056
C          9.79715         8.55631         0.68541
C          8.52754        10.79485         0.36761
C          8.52859        12.18473         0.27867
C          9.78321        10.04737         0.53207
C          9.74067        12.89512        -0.01106
C          8.60205        15.01192         0.32633
C          8.66927        16.49729         0.37873
C          9.80873        14.28590        -0.02217
C          9.93672        17.14530        -0.06166
C          8.65020        18.93660        -1.23547
C          9.87604        18.48859        -0.70562
C         10.98225         2.20087         0.02279
C         11.05506         3.37713         1.02594
C         12.12284         1.57871        -0.61929
C         12.27936         4.26786         0.81664
C         11.06189         6.41844         0.64573
C         11.07506         7.82420         0.45367
C         12.27475         5.69133         0.59056
C         12.27021         8.50154         0.17900
C         11.00200        10.66069        -0.05584
C         10.92012        12.12097        -0.40035
C         12.34368        10.01235         0.27682
C         12.18535        12.79810        -0.69242
C         11.08184        14.94633        -0.35058
C         11.13058        16.33320        -0.37968
C         12.29857        14.18888        -0.67069
C         12.36329        17.04812        -0.52909
C         11.09289        19.16404        -0.83958
C         12.32983        18.50937        -0.56093
C         13.41064         1.62306        -0.08869
C         13.49767         3.61950         0.78897
C         14.66194         1.23239        -0.60656
C         14.71502         4.18496         0.31905
C         13.51027         6.37222         0.35695
C         13.52159         7.79778         0.08461
C         14.73518         5.63074         0.22439
C         14.71143         8.48196        -0.24942
C         13.42637        10.61053        -0.58682
C         13.20232        11.85067        -1.10950
C         14.64854         9.80464        -1.01692
C         15.06633        12.92367        -1.24761
C         13.58407        14.91215        -0.77311
C         13.56779        16.34761        -0.61229
C         14.85488        14.28646        -0.85568
C         14.82503        17.13413        -0.57042
C         13.50953        19.22857        -0.35506
C         14.75066        18.55870        -0.19353
C         15.85510         1.93589        -0.22950
C         15.85405         3.37178         0.04987
C         17.10105         1.28493        -0.37428
C         17.10895         4.05267        -0.04337
C         15.92404         6.30031        -0.07338
C         16.00850         7.79641         0.08420
C         17.12052         5.51074        -0.30423
C         17.28999         8.41325        -0.44550
C         16.03467        10.61219        -1.02394
C         16.09454        12.10004        -0.83527
C         17.31681         9.86490        -0.76552
C         17.38217        12.78712        -0.54659
C         16.04144        14.94359        -0.23515
C         16.14080        16.42244        -0.30277
C         17.31270        14.18488        -0.01435
C         17.26340        17.12664         0.34414
C         15.89358        19.19035         0.27833
C         17.11360        18.49768         0.56210
C         18.32913         1.93958        -0.13453
C         18.31296         3.36511         0.00242
C         19.58321         1.26252        -0.11999
C         19.55341         4.09559         0.43407
C         18.45843         6.23338        -0.40960
C         18.45493         7.71885        -0.43379
C         19.66303         5.52763        -0.01215
C         19.80850         8.35440        -0.65480
C         18.62137        10.55306        -0.48909
C         18.65520        12.03434        -0.44444
C         19.77826         9.85312        -0.42833
C         19.89570        12.74296        -0.02955
C         18.61244        14.92013         0.31466
C         18.54654        16.41118         0.66519
C         19.88599        14.17034         0.02338
C         19.81023        17.30914         0.96197
C         18.21518        19.28370         1.07035
C         19.47856        18.78624         1.14080
C         20.78823         1.94669         0.06729
C         20.83393         3.33247         0.27488
C         22.02628         4.07164         0.51838
C         20.84616         6.23413         0.30063
C         20.88997         7.65079         0.16021
C         22.01924         5.44784         0.63912
C         21.93211         8.42772         0.74390
C         21.13493        10.52713        -0.36544
C         21.09931        12.02233        -0.10611
C         22.02590         9.78407         0.60272
C         22.32240        12.71430        -0.13507
C         21.11377        14.80905        -0.23938
C         20.98398        17.22463        -0.00003
C         22.32491        14.09597        -0.27212
C         21.92116        18.20958        -0.08199
C         20.59748        19.69924         1.30421
C         21.77519        19.42512         0.68198
O         18.24021        12.65924        -1.74275
O          6.18899        16.16983         1.91541
O          7.34496         9.30532        -1.06670
O          9.70921         5.02198         2.25406
O         16.33976        14.33290         1.06768
O          2.59668         9.00176         2.47979
O         21.19329        16.09864        -0.76832
O         18.47235        15.37871         1.71017
O          4.16619         6.50159        -1.35150
O          9.60721        17.03939         1.37268
O          3.42384        16.31222         1.72949
O         13.52632         2.27758         1.15877
O         15.78769        16.88125        -1.65600
O         10.71334        11.03495        -1.42253
O         14.09537        12.34028        -2.06502
O          4.94358        13.60642         2.29596
O          9.91386         9.46273         1.88105
O          3.04537         4.42486        -2.02749
O         16.85182        10.13032        -2.15523
O         17.78147         5.73205        -1.62944
O         16.17525         8.00796         1.55908
H         15.32560         7.75969         1.98543
O         12.60924        10.32269         1.67584
H         11.84318         9.97756         2.19517
O          8.66995         1.52299         1.95214
H          9.55935         1.81376         2.28406
O         19.35963         4.23292         1.91359
H         20.22047         4.52767         2.28435
O         20.17976         8.14788        -2.06044
H         19.42713         8.45062        -2.61360
O         11.12663         2.77786         2.34672
H         10.95105         3.50448         2.98743
O         21.75182        10.37597        -1.68051
H         21.49383         9.48481        -2.02512
O         14.41389         9.41717        -2.39123
H         15.29185         9.40063        -2.84285
O         20.37427        16.87734         2.22895
H         19.80323        16.14532         2.56958
O          7.48347        18.35063         1.37799
H          7.38377        17.83861         2.21136
H          0.54531         1.58378        -1.53265
H          0.38969         3.59602        -0.11458
H          2.66196         0.57944        -2.02463
H          0.42036         5.30907         1.03533
H          0.71911         7.26582         2.55117
H          0.44207        10.44640         2.43146
H          0.24494        12.77562         1.55270
H          0.22916        14.44619         0.32091
H          0.28227        16.66030        -0.70990
H          1.60270        18.43331        -1.85945
H          4.98858         0.40693        -0.95833
H          3.81069        19.36576        -2.45892
H          7.26986         0.30133        -0.03689
H          6.21222        19.37566        -2.34209
H          9.68770         0.77179        -0.89464
H          8.64388        19.80865        -1.90745
H         11.92920         0.97430        -1.51863
H         11.10759        20.21489        -1.16516
H         14.74431         0.40269        -1.32481
H         13.47196        20.32373        -0.26064
H         17.10762         0.21015        -0.60918
H         15.84647        20.26264         0.52014
H         19.59945         0.17371        -0.27135
H         18.04534        20.35751         1.24156
H         21.73311         1.38269         0.04045
H         22.97995         3.52878         0.60361
H         22.96672         5.96718         0.83702
H         22.66397         7.91390         1.38605
H         22.84104        10.32656         1.10386
H         23.26488        12.15385        -0.19910
H         23.25877        14.63985        -0.46325
H         22.80393        18.06896        -0.71887
H         20.42006        20.67355         1.78188
H         22.60645        20.14296         0.70421
