         277
 CSIRO Nanostructure Databank - Neutral Graphene Oxide Data Set
C         31.02855        31.91825        -3.59822
C         30.81760        33.00814        -3.05429
C         30.33907        36.69594        -0.21129
C         30.42005        37.54983         0.68413
C         30.89295        39.69887         2.86420
C         30.98527        40.76013         3.48688
C         33.30214        29.06683        -2.92117
C         32.38487        29.68699        -3.46680
C         33.08484        31.79083        -2.24952
C         32.24652        31.14326        -3.41533
C         32.71164        33.12180        -1.61716
C         31.51899        33.72457        -2.02509
C         32.60559        36.19453        -0.55934
C         31.30814        35.83891        -0.85166
C         32.74952        37.44176         0.29099
C         31.74390        37.63013         1.45958
C         33.25622        39.72829         2.18125
C         31.96701        38.89464         2.26435
C         33.27019        41.16441         2.70468
C         32.09552        41.70064         3.59774
C         33.05056        43.89496         3.34177
C         32.08828        43.16495         3.62298
C         35.68440        27.27467        -1.43345
C         35.53169        28.75568        -1.66695
C         34.16078        29.38613        -1.77583
C         35.18663        31.57317        -0.81477
C         34.01622        30.87213        -1.46159
C         35.13027        33.05205        -0.62661
C         33.79683        33.80076        -0.79850
C         35.11773        36.05135        -0.77994
C         33.81528        35.28475        -0.53466
C         35.16278        37.55255        -0.56155
C         34.03242        38.19528         0.23976
C         35.29751        40.27735         0.67509
C         34.44073        39.19929         1.33524
C         35.33167        41.70380         1.20021
C         34.13264        42.19378         1.98671
C         35.35474        44.46486         2.26340
C         34.06738        43.68363         2.29159
C         35.49935        45.91991         2.08728
C         37.93163        27.24470        -0.51222
C         36.68793        26.66740        -1.05624
C         37.71940        28.71203        -0.20323
C         36.33088        29.35193        -0.43179
C         37.71999        31.60802        -0.31368
C         36.50630        30.84612        -0.74443
C         37.71899        33.10121        -0.33730
C         36.44807        33.79209        -0.76992
C         37.74935        36.06525        -1.04460
C         36.41806        35.28080        -0.97995
C         37.71550        37.44845        -0.36349
C         36.50803        38.31348        -0.70834
C         37.76957        40.51660        -0.11624
C         36.46513        39.73833        -0.10450
C         37.84904        41.87206         0.56649
C         36.60190        42.51288         1.14201
C         37.96027        44.68725         1.67598
C         36.69077        43.83430         1.87996
C         37.89800        46.24244         1.62351
C         36.48395        46.60190         1.80667
C         39.85330        24.42633         1.07013
C         38.89751        25.06669         0.60415
C         39.96475        27.14953         1.04178
C         39.11641        26.43036        -0.03818
C         39.83324        28.64147         1.25305
C         38.56136        29.43798         0.84662
C         40.02759        31.70877         0.86754
C         38.76811        30.94312         0.54447
C         40.16561        33.10057         0.27533
C         38.90583        33.77269        -0.16188
C         40.27446        35.93214        -0.46861
C         38.98769        35.19298        -0.63981
C         40.28150        37.43972        -0.56998
C         39.00460        38.18642        -0.24876
C         40.29659        40.32225         0.17214
C         39.04927        39.71230        -0.46138
C         40.39011        41.79452         0.50517
C         39.16433        42.51431         0.92805
C         40.40177        44.79433         0.64479
C         39.20916        44.01043         1.17728
C         40.30804        46.29217         0.50172
C         39.04721        47.01612         1.04478
C         39.98562        49.02363         0.02103
C         39.05438        48.39436         0.52437
C         42.46085        24.29400         1.40390
C         41.12805        24.85557         1.63555
C         42.56841        27.11615         1.44697
C         41.22129        26.40640         1.48401
C         42.52182        28.48566         0.70637
C         41.08591        29.39347         1.66152
C         42.59169        31.56826         1.07119
C         41.24772        30.90105         1.32104
C         42.63411        33.14573         0.95896
C         41.38319        33.74516         0.28020
C         42.75627        35.99505         0.23290
C         41.44402        35.24360         0.16462
C         42.83686        37.51726         0.12428
C         41.56984        38.16423        -0.42824
C         42.79095        40.37749        -0.56619
C         41.57647        39.61296        -0.04124
C         42.87473        41.83530        -0.12607
C         41.55820        42.56385        -0.04430
C         42.78566        44.84335        -0.30140
C         41.50593        44.05536        -0.08683
C         42.56414        46.25865        -0.79678
C         41.26258        46.94550        -0.49696
C         42.55339        49.06122        -0.43732
C         41.15102        48.76595        -0.81747
C         43.52212        24.88858         1.17206
C         44.98551        27.05419         0.53270
C         43.73250        26.29069         0.77530
C         45.01174        28.56433         0.71844
C         43.84024        29.25290         0.91262
C         45.05941        31.42847         0.30719
C         43.78026        30.73459         0.65570
C         45.12612        32.89792        -0.02386
C         43.97918        33.76067         0.42040
C         45.21639        35.83173        -0.67504
C         44.05876        35.23152         0.12901
C         45.22216        37.32120        -0.92331
C         44.00907        38.11886        -0.61902
C         45.36599        40.33244        -0.67406
C         44.09930        39.60837        -0.39052
C         45.29105        41.80193        -1.04795
C         44.12853        42.58697        -0.45884
C         45.18990        44.80078        -1.34593
C         44.07091        44.10413        -0.60253
C         45.13600        46.35079        -1.27726
C         43.84254        47.06717        -1.07410
C         43.60924        48.46778        -0.68008
C         47.40103        27.11445         0.86181
C         46.34811        26.52836         0.59039
C         47.68488        28.54397         0.64850
C         46.33808        29.27239         0.61026
C         47.59369        31.54809         0.88614
C         46.32072        30.76460         0.77771
C         47.69859        32.86214         0.10535
C         46.44036        33.55670        -0.35327
C         47.84126        35.78107        -0.90650
C         46.50026        35.04443        -0.77321
C         47.83873        37.28822        -1.09924
C         46.52440        38.04591        -1.22999
C         47.84649        40.30044        -1.23598
C         46.53470        39.55142        -1.20682
C         47.87374        41.77962        -1.50926
C         46.53027        42.51863        -1.53518
C         47.82771        44.78253        -1.68421
C         46.47738        44.04848        -1.64765
C         47.56754        46.19135        -1.36213
C         46.52821        46.79297        -1.09387
C         50.26984        28.88686         0.86520
C         48.86913        29.21601         1.30489
C         50.17107        31.60488         1.07538
C         48.89441        30.80603         1.16964
C         50.05820        33.12831         1.02545
C         48.96118        33.67424         0.16768
C         50.30134        35.92896         0.02739
C         49.08274        35.10758        -0.32241
C         50.30959        37.42683        -0.29862
C         48.97281        38.10518        -0.47789
C         50.13949        40.43995         0.00128
C         48.95023        39.61646        -0.48167
C         50.08038        41.95628        -0.12818
C         49.24536        42.50537        -1.32063
C         50.32770        44.65629        -0.89078
C         49.11606        44.05902        -1.47011
C         51.33464        29.50945         0.94228
C         52.50974        31.84080         1.44547
C         51.56151        30.95909         0.65458
C         52.38693        33.06996         1.54281
C         51.23503        33.97780         1.45735
C         52.53564        36.17243         0.88099
C         51.22995        35.47911         1.21064
C         52.55731        37.37299         0.58344
C         51.57819        38.24967        -0.06364
C         52.55653        40.67810         0.37828
C         51.46178        39.70394         0.27912
C         52.44945        41.89942         0.53244
C         51.32763        42.79944         0.30360
C         51.29468        44.10140        -0.35950
O         45.61364        35.19585        -1.91231
O         49.62991        31.22828         2.36363
O         48.07054        40.80517        -2.57526
O         33.01698        38.75215         3.24984
O         32.88981        38.65135        -0.52839
O         38.98644        44.26069         2.59718
O         38.32193        37.64743         0.93343
O         33.60392        34.35883         0.56990
O         36.24854        43.90198         3.26361
O         47.16714        28.99650        -0.59890
O         44.52568        34.72321         1.41064
O         37.73519        41.74178        -0.88696
O         35.30404        40.33846        -0.76898
O         38.87498        46.86452         2.46380
O         44.10785        26.60563        -0.55000
O         41.93185        35.77926         1.42920
O         44.99477        39.98485         0.68906
O         42.07795        31.36589         2.41631
O         44.22442        30.85968        -0.74169
O         40.03493        41.90385         1.92009
O         38.91455        31.66998         1.81067
O         36.42718        34.36530        -2.12674
O         45.52376        44.40658        -2.69408
O         50.16037        33.66365         2.37886
O         41.01735        25.71019         2.77133
O         41.06481        37.86283        -1.74473
O         41.46345        46.32303        -1.77546
O         30.82929        34.80340        -1.56996
O         48.11599        36.39372        -2.19381
O         48.68490        44.44126        -2.79081
O         44.20186        37.63935        -1.95444
O         39.97493        35.26714        -1.72761
O         37.56103        31.10800        -1.69931
O         38.40134        28.31502        -1.41681
O         35.58808        42.62777         0.10818
O         42.04815        28.51207        -0.48418
O         45.64779        32.89986        -1.38189
O         41.14410        43.28015        -1.25945
O         34.97828        32.16146         0.51430
O         33.29129        41.17459         4.17272
O         33.44540        31.86644        -3.68244
O         50.17779        42.63970         1.15162
O         34.79061        37.00577        -1.84547
O         39.34126        27.66511         2.22734
O         33.41189        29.82842        -0.63496
O         51.22250        37.81495        -1.38381
O         43.81878        42.17034         0.90577
O         33.41892        43.16034         1.12294
O         46.69463        31.43679         2.03122
O         50.28574        35.13914        -1.16892
O         40.98921        39.66723         1.29045
O         46.36578        38.82239        -2.44812
O         48.42177        38.83782         0.65059
O         43.82658        44.74228         0.69626
O         44.40083        46.88736        -2.39474
O         50.51863        39.97797         1.33111
O         41.01907        45.68690         1.61361
O         48.69880        32.75770        -0.94372
O         45.56061        41.94943        -2.45939
O         31.84176        36.52488         2.31914
H         31.35635        36.70174         3.15107
O         41.32251        29.15542         2.98366
H         41.93554        29.85061         3.33023
O         50.67198        36.11411         2.34825
H         51.00567        35.68895         3.16588
O         35.50076        29.16132         0.69833
H         36.02282        29.31133         1.52288
O         35.34241        38.52316         2.23427
H         34.81759        38.19003         3.00142
O         37.72794        29.44487         2.02649
H         38.15648        30.01693         2.70302
O         51.74472        31.17317        -0.71063
H         52.53852        30.69579        -1.02638
O         43.02130        27.33947         2.78141
H         42.47878        26.77137         3.38080
O         40.90882        48.95188        -2.14587
H         41.66980        48.65013        -2.68334
O         39.24763        39.87925        -1.87633
H         38.44953        39.52626        -2.34179
O         39.98558        26.24725        -1.13847
H         39.46900        26.09055        -1.95520
O         37.93499        36.41419        -2.41701
H         37.76901        35.61348        -2.96267
O         36.18341        29.07930        -2.86991
H         37.12376        28.78339        -2.81421
O         48.71538        28.90982         2.67341
H         49.34152        29.47063         3.18617
O         50.08783        42.11068        -2.41297
H         49.66363        42.38514        -3.25572
O         36.69903        38.60449        -2.10977
H         35.89407        39.06777        -2.43277
O         43.03172        38.00863         1.46080
H         42.33795        37.63435         2.04815
O         42.56489        40.46592        -1.99097
H         42.29050        39.59443        -2.35480
O         42.53682        33.55705         2.32627
H         43.04754        34.39189         2.45000
