         281
 CSIRO Nanostructure Databank - Neutral Graphene Oxide Data Set
C        -11.09097         0.64090         0.62138
C         -9.88138         1.43027         0.17867
C         -8.58436         0.69225         0.49279
C         -7.34750         1.42393         0.07588
C         -6.30002         0.66149        -0.68527
C         -5.04687         1.37936        -1.15090
C         -3.75555         0.62445        -1.13981
C         -2.40180         1.30789        -1.31814
C         -1.31843         0.78972        -0.38413
C         -0.03412         1.54407        -0.53536
C          1.23926         0.78829        -0.49382
C          2.48357         1.40566         0.05032
C          3.69113         0.76193        -0.02783
C          4.96972         1.45451         0.14519
C          6.19281         0.74059         0.18844
C          7.41171         1.44385         0.23874
C          8.62451         0.68128         0.69324
C          9.96968         1.68320        -1.12478
C         11.12117         0.77835        -0.92647
C         -9.83442         2.89565         0.67988
C         -8.62551         3.67413         0.15782
C         -7.34757         2.92880        -0.06207
C         -6.19154         3.65097        -0.69004
C         -5.04296         2.88421        -1.28373
C         -3.74555         3.63459        -1.41943
C         -2.42191         2.89766        -1.37583
C         -1.18404         3.69738        -1.03654
C         -0.20494         2.98092        -0.08922
C          1.16247         3.61823         0.19204
C          2.42240         2.83011         0.46304
C          3.74766         3.50713         0.83905
C          5.00165         2.86500         0.32297
C          6.21908         3.56854         0.31141
C          7.43493         2.86311         0.10160
C          8.66246         3.61692        -0.19130
C          9.90961         2.90581        -0.49054
C         -8.62767         5.02376         0.06399
C         -7.32924         5.80509        -0.07331
C         -6.40930         5.11311        -1.13820
C         -5.09140         5.89338        -1.30809
C         -3.76372         5.17023        -1.21398
C         -2.55861         5.82171        -0.55176
C         -1.19715         5.24797        -0.99365
C         -0.03840         5.79822        -0.14834
C          1.27298         5.06004        -0.17652
C          2.55366         5.76197         0.10037
C          3.71407         5.03143         0.72209
C          5.00226         5.77649         0.76478
C          6.32435         5.00110         0.85040
C          7.49254         5.77629         0.24165
C          8.64177         4.99808        -0.16027
C         -7.45080         7.30873        -0.24100
C         -6.35221         8.05556        -0.54865
C         -5.20246         7.41660        -1.24271
C         -3.72524         8.00808         0.54776
C         -2.52959         7.20354         0.07611
C         -1.27551         8.07097        -0.21737
C         -0.00611         7.28520         0.01088
C          1.32141         7.82236        -0.41731
C          2.50207         7.26804         0.37124
C          3.80740         7.97852         0.05702
C          5.05622         7.21269         0.32481
C          6.31364         7.89258         0.85619
C          7.48838         7.14633         0.25061
C         -6.20557         9.49407        -0.28284
C         -5.03329        10.11662         0.02417
C         -3.73646         9.47340         0.26464
C         -2.54847        10.13139         0.35824
C         -1.26850         9.37038         0.68384
C         -0.00974        10.23408         0.45417
C          1.27054         9.94429         0.68494
C          2.56948         9.99273         0.98388
C          3.75258         9.52057         0.09334
C          5.10179        10.08628         0.50663
C          6.23760         9.39293         0.68794
C        -11.09598        -0.68376         0.82946
C         -9.88162        -1.58917         0.89477
C         -8.58561        -0.82902         0.55252
C         -7.44160        -1.57042        -0.05398
C         -6.33269        -0.83671        -0.76170
C         -5.01427        -1.61440        -1.07872
C         -3.82341        -0.77840        -0.56796
C         -2.60396        -1.37833         0.07102
C         -1.31433        -0.59441         0.18861
C          0.07159        -1.29290         0.43487
C          1.05374        -0.72994        -0.62445
C          2.42357        -1.39417        -0.72440
C          3.70877        -0.64968        -0.51121
C          5.04437        -1.40375        -0.49080
C          6.11550        -0.76181         0.42588
C          7.42903        -1.52015         0.18963
C          8.71173        -0.77354         0.24018
C          9.80451        -1.37886        -0.65875
C         11.07226        -0.55001        -0.66377
C        -10.05210        -2.85428        -0.00677
C         -8.82872        -3.76058        -0.00866
C         -7.56651        -3.03051        -0.34719
C         -6.28649        -3.78975        -0.30431
C         -4.98760        -3.05360        -0.48936
C         -3.73556        -3.66045         0.02928
C         -2.52548        -2.84522         0.32258
C         -1.24147        -3.59512         0.45061
C          0.05417        -2.84766         0.31665
C          1.19616        -3.60856        -0.28796
C          2.41725        -2.89870        -0.80989
C          3.70335        -3.65165        -0.75561
C          4.91320        -2.93648        -0.15955
C          6.21040        -3.68647        -0.47295
C          7.48680        -2.90549        -0.42941
C          8.79588        -3.60823        -0.27354
C          9.92745        -2.86441        -0.34656
C         -8.83123        -5.11628         0.02142
C         -7.54211        -5.94530        -0.16299
C         -6.42148        -5.08496         0.55459
C         -5.04732        -5.66338         0.94566
C         -3.74840        -4.96251         0.75952
C         -2.51722        -5.78124         0.55141
C         -1.27092        -5.07718         0.23917
C         -0.16208        -5.76841        -0.15426
C          1.09926        -5.09164        -0.64975
C          2.34832        -5.74475        -0.04579
C          3.66931        -5.13210        -0.43956
C          4.94374        -5.83263        -0.06558
C          6.23727        -5.11905        -0.14392
C          7.45162        -5.82074        -0.02442
C          8.79779        -5.13678        -0.28483
C         -7.66299        -7.45909         0.10445
C         -6.79538        -8.24258         0.79854
C         -4.93007        -7.10032         1.21362
C         -3.83959        -7.84699         0.86158
C         -2.62212        -7.14976         0.46986
C         -1.48018        -8.02535         0.00129
C         -0.17333        -7.25768        -0.19619
C          1.10345        -7.97729         0.10651
C          2.32922        -7.16463         0.41070
C          3.60499        -7.91123         0.70536
C          4.90621        -7.14458         0.65417
C          6.21951        -7.91347         0.63837
C          7.43376        -7.20346         0.20269
C         -6.38938        -9.63393         0.59112
C         -5.10487       -10.07588         0.73758
C         -3.85449        -9.32233         0.91803
C         -2.65063        -9.97101         0.99000
C         -1.35304        -9.17918         1.04071
C         -0.08993       -10.00328         0.83624
C          1.07784        -9.42099         0.49142
C          2.36369       -10.17955         0.20395
C          3.62244        -9.41539         0.64115
C          4.95072       -10.05727         0.45825
C          6.12114        -9.38574         0.51631
O          3.76654         3.23628         2.35691
O          4.64260        -3.14612         1.24112
H          5.20716        -2.55502         1.80231
O         -1.98270        -3.16800         1.64062
O         -4.88600        -1.75033        -2.48748
H         -5.60486        -2.34319        -2.79797
O         -4.24178         5.68277        -2.48575
O         -7.64873         1.17651         1.49885
O         -4.56674         7.48558         1.27441
O          6.87944        -3.25340        -1.70514
O          0.55929        -0.92902         1.71696
H          0.00658        -1.35564         2.40529
O          9.37511         1.09763         1.55506
O         -6.88374        -0.04645        -1.84682
O         -7.47877        -1.32540         1.38601
O          4.34821        -5.95149        -1.43653
O         -4.41146         8.08710        -1.89243
O          1.50334         3.22127         1.55179
O          0.65061        -7.80941        -1.29378
O         -4.07960        -3.85097        -1.36580
O          4.16932         5.64686         1.96883
O         -4.40118        -4.90473         2.06182
O          3.47118        -8.72130         1.91323
O         -1.86997        -8.58749        -1.26580
H         -1.07269        -8.58459        -1.84391
O          1.42929         8.34517        -1.52798
O          1.09374        -3.43107         1.15877
O         -1.41505         3.25888        -2.38611
O          3.11883        -0.77879        -1.85287
O          8.29792        -1.58902         1.37163
O         -7.00648        -3.56448        -1.57935
O         -1.56599         0.57469         1.02594
O         -2.51621         5.97600         0.88182
O          2.22365         7.45634         1.76999
H          2.89152         6.93294         2.28176
O          2.43251       -10.41245        -1.21248
H          2.01221        -9.65839        -1.67910
O          2.21807         5.34186        -1.25493
O          5.67304        -7.25147         1.86024
O         -7.26522        -5.97565        -1.58158
H         -6.43379        -6.46807        -1.73909
O          6.33653         7.67011         2.28917
H          6.51616         6.70317         2.46578
O        -10.23168        -2.36979        -1.34618
H        -10.16916        -3.12660        -1.96526
O          6.66840         4.90805         2.22994
O          9.25011        -1.32381        -2.01908
H          9.80720        -1.87921        -2.60407
O          9.78642        -5.64844         0.60691
H          9.56564        -5.36488         1.51788
O         -1.34235         8.95787         2.05292
H         -0.63802         8.29788         2.23216
O          5.86345        -0.94375         1.86424
O          2.15059        -6.05571         1.35603
O         -6.21114         3.43606         0.74279
O         -4.52757         0.75672        -2.35852
O         -0.13329         6.41739         1.16968
O         -6.04567        -7.63855         1.83287
O          0.76341         1.43411        -1.74276
O          0.39584        -1.03821        -1.86900
H          0.46073        -0.23390        -2.44526
O         -7.10181         5.11216        -2.39163
H         -6.45041         4.88034        -3.09018
O          1.18192        -5.25060        -2.10860
O         -4.58106         3.30575        -2.58228
O         -6.73663         5.73553         1.24318
H         -5.94732         6.32612         1.30534
O         -7.00394        -4.66401         1.80452
H         -6.27181        -4.46304         2.43179
O         -1.37433         8.46409        -1.58754
H         -0.46630         8.56076        -1.96052
O         -0.95112         3.03692         1.13703
H         -0.34052         2.84913         1.88721
O          4.61056         7.44580        -1.03961
O          3.08639        -3.35444        -2.03012
O          0.32724        -4.22154        -2.67652
H          0.97732        -3.64322        -3.14975
O          4.63839         0.25404         3.41496
H          4.90952         1.19874         3.21356
O         -1.94280         0.86048        -2.60643
H         -2.66615         1.03147        -3.25152
O         -3.69864        -0.79839         0.87412
O          5.59364        -1.21774        -1.79911
H          4.85764        -1.32476        -2.44692
O          5.07610         2.93476         2.80808
H          5.60779         3.82103         2.77394
O          3.55604        10.01124        -1.23848
H          2.84764         9.47350        -1.66836
O         -9.94608         1.52088        -1.27139
H        -10.14363         0.63249        -1.63711
O         -9.80188        -2.04731         2.25510
H         -8.84917        -2.06633         2.50653
O         -9.78550         2.90837         2.10626
H         -8.90995         2.54998         2.37968
O          4.47070        -0.35870         2.18276
O          8.92885         1.29349        -1.90029
H          9.05335         0.36810        -2.23593
O         -1.23557        -8.52479         2.32785
H         -1.21968        -9.20777         3.02969
O         -0.88999         5.72223        -2.30948
H         -1.23238         5.06463        -2.96022
H         12.01634        -1.06885        -0.43361
H         12.10078         1.27416        -0.82740
H         10.82301         3.27597        -0.00255
H          9.55499         5.54931        -0.43331
H          8.34724         7.70009        -0.16165
H          7.16646         9.94940         0.89259
H          5.16388        11.18617         0.48406
H          2.83655        10.34668         1.99779
H         -0.21026        11.23590         0.02456
H         -2.50132        11.22210         0.20624
H         -5.05531        11.21074         0.15519
H         -7.12121        10.10600        -0.32151
H         -8.31232         7.79272         0.24934
H         -9.55362         5.58405         0.26887
H        -10.77734         3.41165         0.36924
H        -12.04527         1.18980         0.66213
H        -12.04806        -1.17183         1.09205
H        -10.96244        -3.42523         0.32609
H         -9.77732        -5.65808         0.17915
H         -8.26956        -7.95972        -0.66883
H         -7.15590       -10.36379         0.28541
H         -4.94727       -11.15717         0.58594
H         -2.61287       -11.07214         0.99668
H         -0.11957       -11.08366         1.05554
H          2.34829       -11.17823         0.71055
H          4.96212       -11.14164         0.27206
H          7.06215        -9.93387         0.35422
H          8.37996        -7.76340         0.14627
H          9.11736        -5.44746        -1.31902
H         10.91972        -3.33674        -0.27995
