         260
 CSIRO Nanostructure Databank - Neutral Graphene Oxide Data Set
C         30.66124        32.15388         1.85449
C         30.92350        33.15847         2.53052
C         30.86065        36.03675         1.68331
C         30.58431        37.27683         1.51606
C         30.21725        40.16121         0.09258
C         30.22347        41.40731         0.00362
C         32.55139        29.32904         0.34975
C         31.55736        29.97189         0.79115
C         32.96764        31.89039         1.18856
C         31.62124        31.28509         1.26049
C         33.19823        33.18271         1.74762
C         32.17512        33.94694         2.64870
C         33.17746        36.08327         1.53034
C         31.99413        35.29169         1.96424
C         32.95657        37.47754         0.96407
C         31.55275        37.94941         0.50393
C         32.57201        40.08018        -0.53546
C         31.52319        39.48742         0.51440
C         32.54245        41.63743        -0.61468
C         31.24580        42.36085        -0.26169
C         32.55016        44.28898        -0.17690
C         31.38506        43.72619        -0.19294
C         35.18713        27.51783         0.13318
C         34.98084        28.89574        -0.36665
C         33.89105        29.73470         0.24178
C         35.41085        31.64642         0.48156
C         34.04851        31.08347         0.63387
C         35.62746        33.11099         0.87861
C         34.56053        33.86597         1.67650
C         35.47591        36.03727         0.38094
C         34.48194        35.37557         1.28257
C         35.35097        37.36825         0.03279
C         34.13926        38.17328         0.35360
C         35.16624        40.27388        -0.37174
C         33.95146        39.50559        -0.27334
C         35.21878        41.73233        -0.79590
C         33.85670        42.45024        -0.66504
C         35.08726        44.55509         0.28086
C         33.84683        43.89933        -0.26644
C         35.32112        46.03753         0.03889
C         37.58459        27.33536         0.30707
C         36.19977        26.83422         0.27866
C         37.57791        28.74855        -0.22371
C         36.39222        29.50811        -0.28406
C         37.66269        31.62320        -0.67852
C         36.42708        30.91902        -0.31148
C         37.76938        33.09687        -0.42398
C         36.68532        33.86631         0.21682
C         37.76070        35.90486        -0.61060
C         36.64925        35.26289        -0.01294
C         37.66898        37.27686        -1.10186
C         36.38208        38.03594        -0.80763
C         37.66423        40.33270        -1.24722
C         36.48310        39.52521        -0.66918
C         37.73705        41.75170        -0.63362
C         36.45085        42.41742        -0.10053
C         37.70778        44.59394         0.10245
C         36.40473        43.94171        -0.37969
C         37.74290        46.08250         0.36082
C         36.38863        46.63238         0.20417
C         40.09635        24.51477         0.81719
C         39.05577        25.08234         0.45989
C         40.18508        27.15986        -0.07782
C         38.84544        26.53969         0.34900
C         40.18360        28.62187        -0.37479
C         38.86747        29.34600        -0.60733
C         40.22980        31.55174        -0.85845
C         38.93448        30.85142        -0.88712
C         40.32057        32.95194        -0.80411
C         39.11203        33.73262        -0.42595
C         40.24349        35.83671        -1.28453
C         39.06399        35.21936        -0.61325
C         40.23004        37.33339        -1.38107
C         38.92873        38.07709        -1.33132
C         40.22964        40.25159        -1.48563
C         38.96077        39.55748        -0.87317
C         40.14725        41.87092        -1.38865
C         38.93090        42.41296        -0.60461
C         40.23589        44.70004        -0.45255
C         38.95297        43.91173        -0.40857
C         40.27158        46.16621        -0.09183
C         38.99156        46.85023         0.22196
C         40.31428        48.79343         0.85678
C         39.24332        48.15763         0.53855
C         42.69116        24.66225         1.46817
C         41.47757        24.97258         0.70137
C         42.65961        27.34758         0.71123
C         41.47972        26.47184         0.32377
C         42.63604        28.85243         0.51302
C         41.31924        29.54130         0.11537
C         42.80353        31.41869        -0.91285
C         41.47697        30.73483        -0.81488
C         42.78610        32.88829        -1.25575
C         41.53714        33.63170        -1.01298
C         42.81522        35.85235        -1.24681
C         41.53990        35.08167        -1.33015
C         42.78784        37.26271        -1.11059
C         41.50565        38.02512        -1.01301
C         42.77107        40.22503        -0.92831
C         41.46769        39.52157        -0.94204
C         42.76250        41.70942        -0.73790
C         41.51992        42.54487        -0.97706
C         42.74817        44.53040         0.25202
C         41.57582        43.98423        -0.53302
C         42.76167        45.88572         0.66658
C         41.61975        46.81238         0.37058
C         42.75984        48.48628         1.68115
C         41.53785        48.18369         1.02582
C         43.70767        25.35650         1.52017
C         45.10440        27.52173         1.41594
C         44.04568        26.64173         0.80183
C         45.12063        29.02543         1.09192
C         43.93288        29.62032         0.40218
C         45.23870        31.63876        -0.31282
C         44.00361        30.84817        -0.22896
C         45.29269        32.92995        -0.79111
C         44.08448        33.66645        -1.26795
C         45.25888        35.90033        -1.09831
C         44.04947        35.16387        -1.16894
C         45.23986        37.30454        -1.02043
C         43.99726        37.98030        -0.96703
C         45.09363        40.02808        -0.17923
C         43.96465        39.39653        -0.61490
C         44.97813        41.33802         0.50337
C         43.79968        42.23574         0.21869
C         44.94478        44.14106         1.34785
C         43.84715        43.68384         0.57988
C         44.94302        45.50344         1.75628
C         43.88229        46.35626         1.42435
C         43.70893        47.70269         1.88321
C         47.48857        27.71313         1.69243
C         46.47749        27.00846         1.54371
C         47.75531        29.02818         1.19853
C         46.44790        29.75791         0.98558
C         47.79715        31.53303        -0.43524
C         46.50285        31.04457         0.23030
C         47.84434        33.08705        -0.23582
C         46.58057        33.67762        -0.88050
C         47.79954        35.93598        -0.71565
C         46.55719        35.17003        -1.09838
C         47.77289        37.42586        -0.74472
C         46.50278        38.13192        -1.24720
C         47.64223        40.31692        -0.29179
C         46.41047        39.54531        -0.64159
C         47.57563        41.35189         0.81343
C         46.20889        41.88318         1.17880
C         47.31244        43.75667         2.50571
C         45.94653        43.15981         1.99327
C         47.07598        45.15161         2.90862
C         46.12019        45.83046         2.51425
C         50.27026        29.23484         1.33525
C         48.95069        29.61937         0.94351
C         50.38851        31.61771         0.07701
C         49.07986        30.86237         0.09947
C         50.41943        32.99171        -0.61026
C         49.11871        33.72532        -0.81260
C         50.39844        36.03815        -0.94205
C         49.11134        35.23501        -0.97673
C         50.34414        37.50388        -0.58391
C         49.06195        38.20835        -0.86199
C         50.19250        40.50096        -0.23485
C         48.98116        39.69803        -0.61831
C         49.97260        41.83473         0.39549
C         48.81118        42.16333         1.06894
C         49.92438        43.96534         2.39580
C         48.67266        43.24168         2.11497
C         51.39603        29.75707         1.34923
C         52.72278        31.91639         0.62120
C         51.50102        31.25063         1.17059
C         52.76366        33.00710         0.04956
C         51.74237        33.76714        -0.67781
C         52.72762        36.16605        -0.22693
C         51.72955        35.26022        -0.80427
C         52.54093        37.31921         0.17995
C         51.42595        38.20017        -0.08636
C         52.39956        40.35751         0.96834
C         51.48122        39.66800         0.06792
C         52.43050        41.43011         1.59627
C         51.78629        42.68358         1.52857
C         51.07917        43.44433         2.45528
O         44.78876        28.47909         2.42096
O         39.56179        37.76957        -2.59538
O         43.82759        41.37551         1.41358
O         46.86820        40.85100         1.99284
O         37.75640        45.08824         1.47346
O         38.83206        29.87991        -1.97658
O         42.28032        30.56133        -2.00025
O         40.68756        35.26541        -2.54442
O         33.73563        38.38283         1.78023
O         41.36979        38.73186         0.29402
O         51.29294        40.40726        -1.16569
O         37.41354        32.60245        -1.77163
O         40.36205        27.64785        -1.44169
O         33.07047        42.14027        -1.86844
O         49.73361        35.72747        -2.19326
O         46.93053        40.63473        -1.52234
O         36.61912        37.48434        -2.11682
O         34.68951        28.78867        -1.81599
O         41.17129        46.85009        -1.00793
O         52.05865        34.41643        -1.91316
O         47.67037        36.70376         0.52444
O         36.14899        39.88308         0.67665
O         39.37468        34.60980         0.70818
O         38.34085        27.18519         1.54699
O         39.77318        42.29585        -2.66444
O         36.11554        32.01946         1.73175
O         46.49724        31.05903         1.70017
O         50.10982        30.61055        -0.91680
O         43.16317        41.12885        -2.01670
O         46.79182        34.25807        -2.20380
O         49.72895        32.98224        -1.89156
O         49.06284        39.15804        -1.96694
O         39.41155        44.55228        -1.64748
O         47.98704        42.82629         3.34574
O         34.26060        36.12459         2.51926
O         41.83461        25.40097        -0.62738
O         42.40385        28.22072         1.82954
O         51.07277        42.71784         0.25979
O         41.90459        43.61443        -1.89579
O         43.48470        33.18652        -2.51179
O         31.84909        39.97400         1.78937
H         31.36897        39.45250         2.46771
O         44.48105        26.32482        -0.50435
H         43.81588        25.72563        -0.91991
O         35.47855        41.69757        -2.20378
H         35.55500        42.62830        -2.52454
O         40.31763        39.98785        -2.88539
H         40.27351        40.86756        -3.35701
O         34.62931        30.16078        -2.29577
H         35.18279        30.12262        -3.11462
O         31.32730        37.42511        -0.77906
H         30.61989        37.94486        -1.21825
O         40.78813        30.13528         1.32800
H         41.02913        29.55051         2.08504
O         32.58554        34.08515         3.99000
H         33.56954        34.18579         4.00892
O         47.87118        33.40363         1.16455
H         47.28539        32.78997         1.66619
O         32.16118        39.61425        -1.83695
H         32.54421        40.23673        -2.49893
O         36.32097        44.18580        -1.79304
H         37.22550        44.21490        -2.17885
O         36.42658        42.31595         1.32236
H         36.60653        41.38278         1.58275
O         45.27746        42.74380         3.19303
H         45.80562        42.01342         3.58504
O         35.07110        44.37073         1.67081
H         35.94302        44.65753         2.03568
O         35.05440        33.86476         3.04468
H         35.87217        34.40366         3.08702
O         38.96715        39.59867         0.55877
H         39.80151        39.18538         0.89493
O         51.12738        31.89066         2.36322
H         51.76630        31.66749         3.07132
O         46.60439        38.24411        -2.67227
H         47.16959        39.02565        -2.87919
O         37.57858        40.42247        -2.65741
H         38.27387        41.06323        -2.96140
O         47.65225        31.23174        -1.81654
H         48.48845        31.49071        -2.27456
