         651
 CSIRO Nanostructure Databank - Neutral Graphene Oxide Data Set
C          6.30806        31.61507        -0.88103
C          6.31191        32.98203        -0.85845
C          8.37243        27.31372         0.30163
C          8.35562        28.67446         0.36431
C          7.34083        29.45234        -0.29472
C          8.43296        31.52971         0.41541
C          7.34366        30.83238        -0.24835
C          8.29705        32.97321         0.65507
C          7.31425        33.72935        -0.14610
C          8.42718        35.91241         0.36817
C          7.43717        35.09394        -0.27810
C          8.38492        37.25685         0.01365
C         10.77125        23.12578        -0.02819
C         10.75089        24.47393         0.42155
C          9.53366        25.11979         0.56492
C         10.75483        27.26449         0.99863
C          9.42606        26.52826         1.05012
C         10.74294        28.62709         1.03822
C          9.43269        29.36730         1.17621
C         10.69397        31.60295         1.34886
C          9.52052        30.86016         0.93844
C         10.70831        32.98133         1.42942
C          9.43613        33.73098         1.32247
C         10.78815        35.87135         1.38488
C          9.38893        35.27428         1.42180
C         10.88236        37.25820         1.51739
C          9.19850        38.28621         0.59280
C         10.78017        40.18810         0.60448
C          9.64139        39.47832         0.06059
C         10.91679        41.52805         0.28441
C         13.20791        18.96761        -0.57318
C         13.16037        20.35553        -1.16744
C         11.93212        21.10625        -0.77745
C         13.23085        23.12101        -0.18608
C         11.96922        22.42911        -0.34396
C         13.26006        24.39097         0.54616
C         12.00729        25.16835         0.71867
C         13.26887        27.28588         1.08108
C         12.01402        26.52726         0.99673
C         13.27026        28.65927         1.02536
C         11.99080        29.36387         1.30559
C         13.23861        31.58448         1.49826
C         11.95722        30.84032         1.57028
C         13.25722        32.94965         1.53806
C         11.97995        33.71471         1.82187
C         13.21935        35.87786         1.27882
C         12.00170        35.16062         1.36443
C         13.26090        37.29783         1.20942
C         12.04005        38.00103         1.29276
C         13.22215        40.19919         1.01255
C         11.89664        39.50677         1.44641
C         13.17238        41.69894         1.40667
C         12.05818        42.34435         0.58908
C         13.28537        44.48813         0.24611
C         12.11193        43.66109         0.16918
C         13.32520        45.77235        -0.27119
C         15.66145        14.65916        -0.32725
C         15.59832        16.07029        -0.45161
C         14.44157        16.84761        -0.28753
C         15.59154        18.90850        -1.25757
C         14.37043        18.24779        -0.62204
C         15.64226        20.42359        -1.06363
C         14.43968        21.11305        -0.88593
C         15.70452        23.22549        -0.50163
C         14.45233        22.48911        -0.50217
C         15.73442        24.60750        -0.17006
C         14.59612        25.11307         0.64218
C         15.76794        27.66512        -0.44722
C         14.53019        26.49580         1.28021
C         15.71125        28.92211         0.17256
C         14.37763        29.58208         0.48621
C         15.75991        31.58029         1.31859
C         14.50560        30.75859         1.48357
C         15.74423        33.01718         1.52729
C         14.50680        33.68008         1.47683
C         15.80566        35.86630         1.16434
C         14.48358        35.11361         1.17681
C         15.79833        37.33903         1.24768
C         14.52838        38.04690         1.22201
C         15.74008        40.18163         1.10477
C         14.48986        39.43144         1.33654
C         15.79931        41.66455         1.32007
C         14.50400        42.45235         1.28558
C         15.82989        44.53703         0.51876
C         14.51447        43.87530         0.81750
C         15.82392        45.91830        -0.03135
C         14.53119        46.55384        -0.39792
C         15.79941        48.54851        -1.13212
C         14.55559        47.83406        -0.91119
C         15.80763        49.94673        -1.41656
C         18.13956        10.39488        -0.24020
C         18.08689        11.79778        -0.08965
C         16.90341        12.51021        -0.28061
C         18.14807        14.62671        -0.28127
C         16.88115        13.93942        -0.29253
C         18.18668        16.02129        -0.70579
C         16.83449        16.77873        -0.84471
C         18.11335        18.91370        -1.11525
C         16.83583        18.27489        -0.61466
C         18.11561        20.39054        -1.37329
C         16.86366        21.13816        -1.11223
C         18.13258        23.29547        -0.98553
C         16.90460        22.55205        -0.91436
C         18.12057        24.70752        -0.76228
C         16.89791        25.39674        -0.47617
C         18.17148        27.51446        -0.10312
C         16.93765        26.84596        -0.37447
C         18.16329        28.87412         0.32787
C         16.93993        29.54460         0.54347
C         18.21290        31.58905         1.35352
C         16.92894        30.93185         0.99954
C         18.21938        32.97884         1.93438
C         16.97764        33.75251         1.70308
C         18.24234        35.90539         1.72026
C         17.03054        35.14674         1.56642
C         18.28115        37.29052         1.47330
C         17.02964        37.98980         1.25104
C         18.33425        40.16311         0.97306
C         17.04635        39.43299         0.97296
C         18.33099        41.52565         0.70360
C         17.09273        42.32106         0.93350
C         18.26588        44.26399        -0.30464
C         17.01833        43.65666         0.26470
C         18.23799        45.71606        -0.61660
C         17.07349        46.46710        -0.61264
C         18.27665        48.51919        -1.34728
C         17.01767        47.83793        -1.04122
C         18.29389        50.02407        -1.49204
C         16.98662        50.71025        -1.49399
C         18.19595        52.88728        -1.50716
C         17.01474        52.11637        -1.63240
C         18.10895        54.27734        -1.84495
C         20.61856         6.17037        -0.63628
C         20.58987         7.53323        -0.28202
C         19.37267         8.26215        -0.29513
C         20.61999        10.38480        -0.00976
C         19.33527         9.65652        -0.14654
C         20.60888        11.85376         0.26108
C         19.26935        12.53677         0.50575
C         20.59970        14.67120         0.08988
C         19.35901        13.99178         0.07073
C         20.59565        16.18526         0.17763
C         19.38185        16.79343        -0.47538
C         20.65168        18.96873        -0.61739
C         19.35264        18.23356        -0.63265
C         20.68459        20.37346        -1.12299
C         19.42092        21.13706        -1.35655
C         20.60189        23.28813        -1.10934
C         19.39912        22.61034        -1.14472
C         20.60703        24.76562        -1.16960
C         19.35708        25.45187        -0.73787
C         20.70055        27.43801        -0.07789
C         19.38959        26.77864        -0.32936
C         20.67464        28.93430         0.12362
C         19.45858        29.52392         0.80280
C         20.73970        31.76265         1.05319
C         19.44188        31.06642         0.65349
C         20.76309        33.09749         1.51703
C         19.55067        33.68562         2.25614
C         20.76571        35.98644         2.17827
C         19.46967        35.22073         2.18377
C         20.78488        37.39883         1.70592
C         19.54515        38.03502         1.44012
C         20.78520        40.16359         1.07566
C         19.55728        39.43526         1.12381
C         20.78838        41.56229         0.71917
C         19.55866        42.23296         0.46631
C         20.77716        44.26562        -0.15493
C         19.55603        43.57816        -0.01385
C         20.80036        45.59124        -0.81766
C         19.51146        46.31800        -1.06537
C         20.76378        48.59882        -0.71449
C         19.52222        47.81464        -0.93403
C         20.74637        50.13371        -0.58239
C         19.49536        50.80592        -1.14531
C         20.71519        52.88735        -0.92507
C         19.44204        52.18421        -1.12474
C         20.75641        54.21237        -0.62612
C         18.99342        55.27179        -1.36599
C         20.57958        57.21840        -1.47008
C         19.36004        56.53108        -1.84893
C         20.69048        58.57869        -1.69594
C         23.09845         3.51789        -1.59871
C         21.86711         4.17154        -1.37399
C         23.08581         6.01543        -0.27980
C         21.81772         5.43250        -0.76667
C         23.08996         7.47515         0.14380
C         21.82749         8.23922         0.02914
C         23.10972        10.30113         0.52769
C         21.84448         9.59573         0.21740
C         23.12889        11.79915         0.71998
C         21.82012        12.59525         0.84227
C         23.08113        14.61952         0.01494
C         21.86111        13.99585         0.24957
C         23.10701        16.01289        -0.59585
C         21.86430        16.84207        -0.35067
C         23.16656        18.86035        -1.12519
C         21.90162        18.16966        -0.63635
C         23.18764        20.35575        -0.88384
C         21.92602        21.08641        -0.72102
C         23.16564        23.25665        -0.98953
C         21.87455        22.59193        -0.78935
C         23.17959        24.63674        -1.29705
C         21.93206        25.47465        -1.25881
C         23.20699        27.68010        -0.51797
C         21.98540        26.82557        -0.56704
C         23.19335        28.86751         0.41747
C         21.94260        29.71009         0.23137
C         23.18439        31.78732         0.91875
C         21.95867        31.11132         0.76231
C         23.23252        33.13787         1.35334
C         21.99971        33.78114         1.64286
C         23.34293        35.94230         2.12600
C         22.03677        35.17569         2.15641
C         23.28799        37.47961         2.29217
C         22.01103        38.12382         1.70891
C         23.20892        40.34644         1.61879
C         21.99921        39.50433         1.42968
C         23.23719        41.72066         1.08996
C         22.00885        42.32351         0.67991
C         23.19267        44.57510         0.55031
C         21.98679        43.68757         0.27978
C         23.31301        45.80763        -0.32253
C         22.09283        46.36902        -0.87929
C         23.30337        48.66318        -0.82993
C         22.06426        47.90735        -0.97857
C         23.23660        50.07527        -1.00655
C         22.03642        50.76792        -1.04374
C         23.20254        52.90511        -0.86000
C         22.02237        52.21634        -1.06133
C         23.22055        54.33308        -0.35617
C         21.96501        55.02335        -0.85112
C         23.07836        57.27974        -0.77729
C         21.85995        56.48069        -1.15435
C         23.11714        58.69884        -1.14502
C         21.91715        59.33251        -1.55605
C         23.13920        61.43924        -1.71580
C         21.94612        60.71675        -1.82879
C         24.31269         4.11708        -1.30126
C         25.55276         6.10947        -0.51712
C         24.36595         5.41067        -0.70284
C         25.57492         7.49661        -0.15790
C         24.36407         8.21038         0.05653
C         25.59740        10.32691         0.23459
C         24.37844         9.60732         0.20885
C         25.59722        11.78339         0.28506
C         24.38636        12.50945         0.39270
C         25.58460        14.57534        -0.10157
C         24.34998        13.91166         0.13634
C         25.58211        16.00587        -0.44545
C         24.33850        16.78963        -0.08880
C         25.61560        18.91177        -0.54422
C         24.41388        18.21272        -0.58043
C         25.65205        20.35294        -0.73185
C         24.38710        21.06948        -0.86901
C         25.63605        23.21331        -1.15794
C         24.36164        22.50865        -0.96572
C         25.65851        24.68799        -1.15374
C         24.43337        25.23540        -1.54112
C         25.70695        27.70237        -0.49378
C         24.40873        27.35477        -1.07620
C         25.68538        28.86588         0.24981
C         24.44352        29.67359         0.18735
C         25.70348        31.67975         1.05851
C         24.44612        31.11321         0.51750
C         25.80358        33.20108         0.92896
C         24.49571        33.88808         1.34811
C         25.69775        36.04879         1.03552
C         24.51724        35.24645         1.54863
C         25.70624        37.49975         1.49405
C         24.56753        38.16636         1.82373
C         25.76236        40.41794         1.54434
C         24.54529        39.65289         1.88009
C         25.72975        41.73975         1.19222
C         24.46753        42.44260         0.96626
C         25.70394        44.46150         0.13949
C         24.47374        43.79457         0.58925
C         25.75336        45.92441        -0.06792
C         24.50759        46.55751        -0.35974
C         25.75793        48.69415        -0.70942
C         24.52603        47.97215        -0.69641
C         25.82930        50.04434        -1.40412
C         24.46530        50.82483        -1.50005
C         25.69748        53.01267        -1.39423
C         24.52450        52.19503        -0.78201
C         25.66191        54.46126        -0.93626
C         24.47715        55.09320        -0.70573
C         25.65419        57.33267        -0.76081
C         24.40747        56.56093        -0.55677
C         25.58294        58.72166        -0.88615
C         24.34324        59.41433        -1.08299
C         24.32646        60.80630        -1.36254
C         26.79176         8.22316        -0.10088
C         28.15283        10.27906         0.23532
C         26.81319         9.59840         0.10308
C         28.09531        11.78526         0.14008
C         26.83680        12.48199         0.12455
C         28.08389        14.62071        -0.10063
C         26.82985        13.89682        -0.03849
C         28.12568        16.02345        -0.22620
C         26.88456        16.75672        -0.49753
C         28.08886        18.89946        -0.27954
C         26.87160        18.22123        -0.36300
C         28.10587        20.33703        -0.35208
C         26.86700        21.02404        -0.61203
C         28.08228        23.27396        -0.53860
C         26.91579        22.45737        -0.95748
C         28.08231        24.72467        -0.81491
C         26.87999        25.45248        -0.94395
C         28.14360        27.49303        -0.21156
C         26.89271        26.87024        -0.59382
C         28.18351        28.78376         0.56357
C         26.83431        29.39948         0.97340
C         28.52680        31.89056         1.27857
C         26.66736        30.79797         1.43897
C         28.35780        33.24176         1.08130
C         27.05368        33.89092         1.58298
C         28.32111        36.07804         1.31973
C         27.01583        35.35586         1.25107
C         28.26643        37.55507         1.00143
C         26.96741        38.25324         1.21906
C         28.35359        40.38714         1.68954
C         27.03754        39.67598         1.66222
C         28.32466        41.86951         1.48237
C         26.99651        42.51760         1.14385
C         28.28503        44.53687         0.17950
C         27.01018        43.75103         0.31186
C         28.23769        46.00964         0.17505
C         26.96313        46.65248        -0.04109
C         28.19699        48.81379        -0.27765
C         26.95598        48.06486        -0.33649
C         28.18402        50.22616        -0.51095
C         26.98619        50.90163        -0.90683
C         28.16478        53.06033        -0.79662
C         26.97470        52.28781        -1.01596
C         28.12400        54.48692        -0.86734
C         26.91520        55.20764        -0.91872
C         26.87591        56.61855        -0.84925
C         29.28413        12.48151         0.11995
C         30.53944        14.61612         0.07241
C         29.32585        13.91261         0.04055
C         30.58036        16.03367         0.00767
C         29.33968        16.74854        -0.12727
C         30.56286        18.88922        -0.13534
C         29.34054        18.17921        -0.18327
C         30.57491        20.32440        -0.17546
C         29.33179        21.02341        -0.28001
C         30.63955        23.17882        -0.29445
C         29.35193        22.49500        -0.22605
C         30.65791        24.62766        -0.53960
C         29.37074        25.42234        -0.77263
C         30.66589        27.59363        -0.49994
C         29.35482        26.85190        -0.44330
C         30.62371        28.98383         0.08818
C         29.45757        29.57446         0.50814
C         30.68157        31.85546         0.04330
C         29.42912        31.06159         0.51077
C         30.68482        33.30016         0.27838
C         29.47618        33.95454         0.53637
C         30.70658        36.18694         0.27219
C         29.41586        35.41971         0.47832
C         30.76088        37.61576         0.68926
C         29.57040        38.29138         1.03665
C         30.81616        40.39309         1.20372
C         29.60790        39.68254         1.28688
C         30.84643        41.87134         1.52748
C         29.56638        42.50193         1.06793
C         30.77231        44.68986         0.73805
C         29.57633        43.85882         0.54392
C         30.70775        46.06560         0.54664
C         29.43434        46.73697         0.27817
C         30.61238        48.93758         0.21780
C         29.40812        48.16750         0.08592
C         30.58868        50.30199         0.01648
C         29.38462        50.98463        -0.33721
C         29.36597        52.38413        -0.50352
C         31.79341        16.76252         0.04585
C         33.02847        18.90573        -0.02336
C         31.81078        18.17128        -0.03281
C         33.05384        20.31145        -0.07761
C         31.80762        21.03678        -0.11232
C         33.10785        23.19694        -0.15971
C         31.83097        22.47416        -0.15940
C         33.15186        24.56870        -0.08417
C         31.87342        25.32882        -0.02357
C         33.14633        27.53670         0.07929
C         31.85592        26.81372         0.02745
C         33.12954        28.94809         0.16726
C         31.89782        29.69818         0.07983
C         33.15977        31.82934         0.16550
C         31.93510        31.09744         0.05660
C         33.17459        33.25489         0.21388
C         31.94020        34.01053         0.22206
C         33.23495        36.11339         0.14585
C         31.95456        35.40515         0.21730
C         33.25055        37.64017         0.33870
C         31.98437        38.31246         0.66750
C         33.27473        40.41522         0.81125
C         32.02881        39.71364         0.91101
C         33.26276        41.87942         0.49780
C         32.04617        42.60531         0.99204
C         33.27515        44.71925         0.70640
C         32.02505        43.97949         0.84370
C         33.16613        46.15379         0.64702
C         31.95277        46.80555         0.59840
C         31.91621        48.31249         0.66479
C         34.28854        21.02901        -0.12963
C         35.58240        23.12621        -0.26294
C         34.34965        22.43002        -0.19332
C         35.71836        24.53834        -0.24478
C         34.41890        25.35895        -0.35028
C         35.49093        27.51185         0.50679
C         34.34516        26.78396         0.20687
C         35.59400        28.92687         0.37352
C         34.35728        29.67575         0.30538
C         35.63364        31.77396         0.46238
C         34.36381        31.07836         0.29884
C         35.67937        33.24275         0.31230
C         34.41695        33.96405         0.36020
C         35.69829        36.04481         0.80502
C         34.45771        35.35246         0.39451
C         35.72166        37.54269         0.94192
C         34.49703        38.31935         0.69518
C         35.78092        40.43598         0.84434
C         34.49762        39.71532         0.80591
C         35.73661        41.88922         0.85238
C         34.55904        42.60568         0.78446
C         34.49258        44.04185         0.78076
C         37.00027        25.07641        -0.47131
C         38.12303        27.38982        -0.79559
C         37.33695        26.45826        -0.18333
C         38.04538        28.90949        -0.60893
C         36.84998        29.51690         0.14937
C         38.09310        31.69336        -0.23984
C         36.91675        30.96425         0.32275
C         38.06165        33.18588        -0.33114
C         36.87460        33.90118         0.18506
C         38.15972        36.07583         0.05991
C         37.03845        35.29773         0.73158
C         38.01705        37.59078        -0.09306
C         37.08932        38.23410         0.96933
C         36.96436        39.74109         0.83877
C         39.34122        29.60238        -0.17196
C         40.52051        31.80424         0.27599
C         39.38143        30.96162        -0.10375
C         40.49647        33.15744         0.19902
C         39.39234        33.91628        -0.53375
C         39.27918        35.42008        -0.31336
O         11.90669        29.90780         2.71552
O         18.42473        49.12534        -2.66971
O         26.17315        16.31413        -1.73556
O         15.37954        26.84687         2.07871
O         23.06029         6.40404         1.13869
O         17.49788        16.30810        -2.00142
O         18.06491        19.40442        -2.46781
O         27.58278        28.54009         1.88456
O         37.75472        32.33676        -1.51072
O          9.72082        37.95586         1.84773
O         33.31758        37.03416        -1.00974
O         27.46175        37.97795        -0.15192
O         15.20545        35.38557        -0.09229
O         31.61964        26.04217         1.25113
O          8.31987        33.20147         2.11703
O         24.42755        26.48357        -2.15845
O         21.22091        29.61606        -1.05356
O         20.81159        11.41092        -1.10095
O         35.50985        36.68350         2.13025
O         22.16999        47.05538        -2.16002
O         24.42570        30.66163        -0.90309
O         36.43930        31.38076         1.63844
O         16.03840        45.66626         1.41997
O         30.27671        25.01796        -1.90057
O         27.57272        42.69072         2.48220
O         29.10856        43.96102        -0.89288
O         23.21835        10.89955         1.88672
O         19.99540        35.83998         3.41814
O         22.86137        35.29083         3.35786
O         21.52596        26.66560         0.85691
O         26.46124        22.69692        -2.32255
O         29.71950        35.97989        -0.81589
O         26.32857        43.63982        -0.95837
O         36.63051        26.88698         0.97134
O         20.27920        20.68665        -2.47782
O         14.15562        24.21936         1.71936
O         24.14347        51.04103        -2.85374
O         16.69744        42.18429         2.34386
O         23.78525        40.23710         2.97193
O         23.57559        57.00183         0.58629
O         27.76051        39.88579         2.92929
O         20.14835        45.59937        -2.14638
O         21.79345        21.87038         0.50910
O         29.62570        31.48924        -0.88517
O         18.17131        31.78657         2.79646
O         16.26373        39.81160        -0.23647
O         17.31799        43.49433        -1.15774
O         28.46687        23.02112         0.85977
O         22.13331        55.49758        -2.23259
O         27.73352        31.25293         2.24127
O         20.00339        48.06388         0.44020
O         21.10821        25.36673        -2.45480
O         14.47654        43.55403         2.25130
O         19.88716        18.91213         0.63643
O         19.64216        54.89701        -0.16329
O         28.74899         9.89982         1.49414
H         28.13773        10.16536         2.21182
O         23.22360        15.82766        -2.02263
H         23.23731        16.72137        -2.44977
O         34.34832        25.62893        -1.80400
H         34.27876        24.76612        -2.26665
O         22.95859        45.10130         1.91850
H         22.96873        44.33910         2.53708
O         30.91850        42.00006         2.99416
H         30.04887        41.73338         3.36484
O         25.46526        36.14436        -0.41739
H         26.22586        36.65608        -0.79056
O         13.21183        40.17126        -0.44974
H         14.11456        39.96369        -0.77935
O         12.80076        41.82575         2.79740
H         13.14033        42.70648         3.09520
O          9.06959        29.23891         2.59565
H          9.85298        29.55879         3.10562
O         37.72069        37.96173         2.24594
H         37.10360        38.24576         2.95350
O         37.42200        37.85439        -1.36667
H         37.96153        37.42580        -2.06231
O         23.22998        37.76058         3.70648
H         22.85223        36.96342         4.14931
O         13.12844        20.15771        -2.64804
H         13.00670        21.04076        -3.05818
O         23.23921        28.47130         1.80499
H         22.56771        27.75500         1.93099
O         14.67154        27.20684        -1.14509
H         14.90681        26.36710        -1.59300
O         19.63155        29.20836         2.20137
H         18.95638        29.69393         2.72520
O          8.85585        35.58986         2.72293
H          8.14724        34.92968         2.90716
O         37.50345        35.08393         2.09293
H         37.49772        35.97309         2.52547
O         14.62650        30.12102         2.78165
H         14.55563        30.80570         3.47891
O         16.75823        18.45959         0.81442
H         16.68576        19.41724         1.01167
O         39.76326        33.82541        -1.93546
H         39.25248        33.06676        -2.31152
O         19.22374        31.39272        -0.74010
H         19.95428        30.96869        -1.25653
O         20.72290        50.42852         0.84553
H         20.19221        49.72044         1.28092
O         19.83450        33.34276         3.62985
H         20.22546        34.13933         4.06257
O         23.19079        18.62240        -2.58670
H         24.00100        19.04553        -2.94538
O         25.60327        53.11226        -2.82122
H         25.04676        52.34282        -3.15676
O         13.81475        30.10755        -0.74358
H         13.87406        29.40169        -1.42271
O          9.00760        26.47422         2.44935
H          8.90625        27.41532         2.74974
O         20.53549        16.46524         1.61651
H         20.38203        17.43787         1.71103
O         26.99844        33.75967         3.03020
H         27.15177        32.80772         3.24353
O         24.83168        52.00441         0.61582
H         24.27899        52.63020         1.14299
O         21.60043        12.80631         2.26175
H         22.05115        12.06447         2.73350
O         18.99598        12.54707         1.92965
H         19.79951        12.91479         2.37876
O         33.01986        48.88589        -0.04682
H         32.89656        48.70270        -1.00068
O         11.58182        39.64107         2.83555
H         11.56473        40.59611         3.07658
O         23.19015        54.27238         1.10403
H         23.30417        55.20113         1.42340
O         24.23518        16.81927         1.36228
H         24.78089        17.55761         1.70436
O         26.20234        49.68806        -2.75882
H         25.45540        50.04439        -3.32308
O         28.79812        35.98164         2.70620
H         28.26177        35.29211         3.16860
O         26.00303        33.39380        -0.48896
H         25.28096        32.94395        -0.97773
O         37.79859        29.41511        -1.96210
H         37.01629        28.94963        -2.32663
O         15.55416        18.60237        -2.65727
H         14.73665        19.02361        -3.01615
O         30.96526        27.80059        -1.91410
H         30.20682        28.26147        -2.33015
O         11.93480        33.81238         3.28480
H         11.11333        34.29263         3.52911
O         33.12847        41.91615        -0.97856
H         33.13032        42.85968        -1.24984
H          5.51417        31.07905        -1.42122
H          5.53586        33.54350        -1.39916
H          7.57897        26.77415        -0.23878
H          6.53709        28.92212        -0.82757
H          6.71992        35.61206        -0.93532
H          7.69821        37.54270        -0.80088
H          9.81021        22.61120        -0.17458
H          8.60448        24.56574         0.36317
H          9.16468        39.88727        -0.84418
H         10.10680        42.00807        -0.28967
H         12.29058        18.53513        -0.14523
H         10.96076        20.60019        -0.87869
H         11.23348        44.08121        -0.34654
H         12.39306        46.21009        -0.66130
H         14.72389        14.09794        -0.19841
H         13.50672        16.34627         0.00945
H         13.61046        48.34055        -1.15928
H         14.84051        50.46922        -1.47575
H         17.20854         9.85655        -0.47821
H         15.97572        11.96654        -0.51792
H         16.06311        52.64506        -1.79772
H         17.29165        54.57711        -2.52044
H         19.67353         5.68768        -0.92940
H         18.43160         7.71803        -0.46683
H         18.72808        57.01814        -2.60801
H         19.79628        59.13446        -2.01729
H         23.09063         2.52635        -2.07276
H         20.93403         3.69674        -1.71013
H         23.14015        62.51773        -1.92685
H         21.01963        61.22833        -2.12580
H         25.25404         3.60849        -1.55479
H         26.50740         5.62227        -0.76713
H         26.51739        59.29551        -0.98337
H         25.26398        61.37767        -1.30896
H         27.74262         7.68323        -0.22035
H         28.84318         9.89068        -0.55934
H         29.07033        55.04320        -0.77743
H         27.81946        57.18439        -0.89113
H         30.23285        11.92743         0.17760
H         31.48271        14.05650         0.15969
H         31.51713        50.87968         0.13628
H         30.29466        52.95773        -0.36360
H         32.74481        16.21748         0.13715
H         33.97984        18.35421         0.01836
H         34.08811        46.75472         0.63552
H         32.06758        48.59555         1.74664
H         35.22751        20.45510        -0.12643
H         36.50591        22.52605        -0.28166
H         36.69528        42.42893         0.90826
H         35.42817        44.61632         0.85995
H         37.80323        24.38019        -0.76527
H         38.68442        27.08619        -1.69266
H         39.03574        38.07002        -0.04018
H         37.91019        40.30575         0.85255
H         40.24675        28.99938        -0.00823
H         41.41491        31.29968         0.67432
H         41.38876        33.72283         0.50896
H         40.12669        36.00169        -0.71482
