         276
 CSIRO Nanostructure Databank - Neutral Graphene Oxide Data Set
C        -11.38063         0.67584         0.42304
C        -10.18044         1.39115         0.94513
C         -8.89177         0.64783         0.93078
C         -7.64112         1.42702         1.34985
C         -6.37259         0.56072         1.34309
C         -5.07984         1.28390         1.79785
C         -3.82357         0.66250         1.17534
C         -2.51188         1.32712         1.56233
C         -1.19572         0.64212         1.27475
C          0.09615         1.41345         1.38818
C          1.42855         0.68441         1.63921
C          2.57521         1.55230         1.06256
C          3.72004         0.93618         0.31076
C          5.02684         1.65143         0.04589
C          6.27950         0.92992        -0.38160
C          7.62389         1.62914        -0.43486
C          8.89617         0.84613        -0.29237
C         10.24641         1.58457        -0.24233
C         11.36881         0.75552         0.35010
C        -10.08473         2.85847         1.03910
C         -8.88421         3.53575         0.81344
C         -7.55965         2.79218         0.67178
C         -6.36848         3.55888         1.19789
C         -5.10626         2.81628         1.51620
C         -3.80188         3.44444         1.06731
C         -2.50806         2.82423         1.52934
C         -1.19265         3.52962         1.25864
C          0.04424         2.86889         1.90381
C          1.36124         3.69464         1.67822
C          2.72219         2.92366         1.74956
C          3.99024         3.73331         1.26959
C          5.16172         3.05228         0.57677
C          6.36145         3.83381         0.06102
C          7.64645         3.12446        -0.28609
C          8.95455         3.74021         0.11153
C         10.07462         2.99991         0.28452
C         -8.83146         4.93032         0.57440
C         -7.60792         5.59366         0.25962
C         -6.33636         4.75338         0.27166
C         -5.10250         5.62742         0.53033
C         -3.80005         4.83140         0.52041
C         -2.53444         5.64719         0.58085
C         -1.21381         4.95826         0.81458
C         -0.00043         5.84529         0.95326
C          1.31003         5.14093         1.26030
C          2.56912         5.89320         0.88470
C          3.92174         5.25314         1.16449
C          5.18522         5.98728         0.76830
C          6.52220         5.19688         0.77871
C          7.68422         5.88950         0.07649
C          9.00624         5.24244         0.41305
C         -7.58136         6.89303        -0.21408
C         -6.31598         7.71252        -0.33686
C         -5.07213         6.83195        -0.39223
C         -3.78390         7.48441        -0.73895
C         -2.51326         6.94395        -0.15802
C         -1.19366         7.48654        -0.66488
C         -0.02481         7.17095         0.24568
C          1.16572         7.51587        -0.62604
C          2.48497         7.12462         0.02078
C          3.74376         7.72497        -0.54200
C          5.08039         7.18083        -0.15277
C          6.13869         7.29848        -1.25149
C          7.51761         6.90682        -0.78249
C         -6.23657         8.73003        -1.46439
C         -5.06911         9.33605        -1.74635
C         -3.81994         8.99039        -0.95699
C         -2.49659         9.52612        -1.44608
C         -1.28541         8.93976        -1.11345
C         -0.05019         9.59395        -1.36364
C          1.19041         8.92273        -1.19823
C          2.37237         9.40895        -1.72391
C          3.57686         8.50285        -1.84177
C          4.86632         9.21397        -2.19055
C          6.05472         8.65975        -1.91086
C        -11.29687        -0.56349        -0.09732
C        -10.00767        -1.07921        -0.69870
C         -8.75037        -0.45597        -0.07118
C         -7.48028        -1.23465        -0.13089
C         -6.35695        -0.83328         0.78222
C         -5.06632        -1.65046         0.69460
C         -3.81734        -0.74395         0.67200
C         -2.54146        -1.52430         0.85164
C         -1.24456        -0.86875         1.27962
C          0.07775        -1.58779         1.12112
C          1.36582        -0.78747         1.12373
C          2.45518        -1.31712         0.21952
C          3.71959        -0.52594        -0.04434
C          4.99232        -1.25672        -0.39644
C          6.35893        -0.59626        -0.56480
C          7.45907        -1.24237         0.26527
C          8.77907        -0.51317         0.35372
C         10.00176        -1.27002         0.77003
C         11.30489        -0.56209         0.60960
C         -9.72831        -2.60212        -0.86274
C         -8.76394        -3.37671         0.04533
C         -7.62388        -2.66244        -0.65879
C         -6.30789        -3.38014        -1.00544
C         -5.03703        -2.67051        -0.46211
C         -3.74382        -3.42189        -0.56014
C         -2.57334        -2.94075         0.30812
C         -1.25675        -3.62982         0.15430
C          0.04153        -3.01611         0.58670
C          1.31656        -3.67681         0.19154
C          2.46015        -2.76759        -0.16293
C          3.73716        -3.50475        -0.49162
C          5.02748        -2.76855        -0.42131
C          6.20938        -3.50316         0.13813
C          7.45758        -2.74128         0.44062
C          8.70010        -3.51880         0.55035
C          9.98619        -2.80524         0.94067
C         -8.78267        -4.70852         0.31660
C         -7.60364        -5.56170        -0.02872
C         -6.41707        -4.89531        -0.66936
C         -5.13954        -5.73753        -0.83702
C         -3.81095        -4.92012        -0.84975
C         -2.55090        -5.66839        -0.56916
C         -1.24069        -4.93525        -0.58107
C          0.02632        -5.70807        -0.63243
C          1.28082        -4.83080        -0.78942
C          2.54251        -5.65912        -0.83969
C          3.71706        -4.99691        -0.15357
C          5.03102        -5.69542        -0.46167
C          6.25240        -5.00118         0.05666
C          7.55674        -5.68032         0.00280
C          8.70085        -4.90506         0.26476
C         -7.52483        -7.04110         0.23021
C         -6.35637        -7.74559         0.10935
C         -5.10382        -6.92536         0.12605
C         -3.81633        -7.48947         0.60317
C         -2.46267        -6.89537         0.29596
C         -1.27380        -7.87448        -0.11267
C          0.05565        -7.17388        -0.25804
C          1.34128        -7.93962        -0.50864
C          2.51490        -7.12899        -0.97937
C          3.70129        -7.92641        -0.50575
C          5.02483        -7.17854        -0.58139
C          6.27760        -7.95542        -0.21363
C          7.58279        -7.13148        -0.50149
C         -6.29856        -9.18317        -0.17159
C         -5.21388        -9.97643        -0.43827
C         -3.80947        -9.61608        -0.18779
C         -2.70331        -9.91145        -0.93120
C         -1.39308        -9.10181        -1.03472
C         -0.05994        -9.88562        -1.15434
C          1.18481        -9.31137        -1.10340
C          2.49168        -9.94467        -1.35935
C          3.69491        -9.30741        -1.12716
C          5.02209        -9.88757        -1.31821
C          6.18838        -9.29309        -0.94661
O          4.59204         8.41377         0.42418
O         -0.97894         3.87462        -0.13781
O          4.49493        -3.25672        -1.69834
O          8.31491         1.04910        -1.60638
O          1.38752         4.75878         2.67987
O          0.98141        -1.59927         2.26768
O          7.08850        -1.78336         1.54559
O          4.65861         6.06646         2.11332
O          0.78802         6.63694        -1.76523
O         -2.15215        -3.86923         1.31168
O         -5.86630         3.56853         2.53128
O         -7.46878        -5.43760        -1.52858
O         -3.87455         0.36613        -0.25520
O         -0.72748         6.73159        -1.86263
O         -4.47942         6.65453        -1.70787
O          2.65098        -6.32014        -2.15423
O          1.94370        -1.76569        -1.07779
O         -2.57847         2.10880         2.78240
O         -2.12872        -1.45595         2.26006
O         -4.09872        -2.41394        -1.53775
O          2.60244         1.63291        -0.37100
O         -6.70311        -0.61320         2.17566
O         -3.70408        -8.84456         0.99226
O         -7.19933         2.77888        -0.75491
O          6.80574         3.80649        -1.29843
O          5.17689        -6.33059        -1.76387
O          5.12679         3.20242         2.01465
O         -0.49847         1.17263         0.09579
O          0.80927        -3.90239         1.50241
O         -2.64373         6.89788         1.31052
O         -3.05020        -5.56649        -1.92708
O          2.45997         7.23331         1.46141
O          5.91311        -4.32464         1.33193
O          4.12443        -0.72781        -1.42902
O         -0.39056        -7.78919         1.01696
O         -3.76202         3.70231        -0.38010
O         -8.56812        -2.57558        -1.81641
O          1.86265        -8.26129         0.89165
O         -0.13228         7.13027         1.66198
O          3.34425        -8.11027         0.90618
O         -7.74835        -0.17666        -1.10110
O         -4.60785        -6.66702         1.48426
O          5.38905         1.55108        -1.36009
O          6.89840         4.88140         2.07467
O         -9.73999         0.45658         2.09517
O         -0.69275        -5.33903        -1.87103
O         -6.35017         4.02384        -1.00811
O          9.21432        -0.51347         1.75147
O         -0.14168         2.78121         3.31354
H          0.22147         3.59737         3.72523
O          1.65139         0.62727         3.04331
H          1.14626        -0.13533         3.40919
O          7.81219        -7.09054        -1.91454
H          6.99795        -6.72484        -2.33610
O          1.25228        -4.13245        -2.04832
H          1.39726        -4.78657        -2.76710
O          5.72981         6.29181        -2.22373
H          6.48550         6.09308        -2.81433
O         10.70556         1.77865        -1.61165
H          9.89779         1.78926        -2.18075
O          3.26413         7.52544        -2.86805
H          3.13688         7.99243        -3.71916
O        -10.11553        -0.59182        -2.05652
H         -9.21317        -0.66286        -2.44955
O         -5.28846         6.12166         1.86932
H         -4.59688         6.80097         2.04464
O         -5.25233        -6.38021        -2.12046
H         -5.35497        -5.67919        -2.79970
O         -7.78020         1.79657         2.74010
H         -8.49410         1.22411         3.11765
O         10.09201         5.83840        -0.29246
H         10.06966         5.53169        -1.22150
O         -4.99685        -2.47490         1.86859
H         -5.27835        -1.92864         2.63965
O         -3.93924         9.57149         0.37696
H         -4.03814        10.54143         0.28345
O         11.09328        -3.37011         0.23509
H         10.93463        -3.29562        -0.72815
O         -6.16665        -3.35308        -2.43081
H         -7.03415        -3.62440        -2.80581
O         -2.06410        -6.31492         1.55380
H         -2.14958        -6.99267         2.25609
O          3.41997        -5.15978         1.24532
H          4.20676        -4.87298         1.77024
O         -6.25120         8.44834         0.92057
H         -7.08534         8.95122         1.02404
O         -1.51844        -8.49614        -2.36337
H         -2.19756        -7.78556        -2.34988
O         -4.97631         1.09849         3.20913
H         -5.71817         1.60193         3.61602
O          6.26409        -8.20012         1.20762
H          5.39179        -8.57967         1.45447
O          6.72252        -0.87880        -1.92746
H          6.03804        -0.45842        -2.49653
O          2.95905         2.68898         3.13332
H          2.99928         3.55905         3.58555
H         12.21545        -1.11619         0.88298
H         12.35463         1.24551         0.33970
H         10.99052         3.52027         0.60770
H          9.19600         5.38382         1.50877
H          8.39794         7.36124        -1.26691
H          6.98917         9.17587        -2.18200
H          4.80805        10.19218        -2.69404
H          2.38387        10.40112        -2.20373
H         -0.05610        10.61413        -1.77676
H         -2.47993        10.55255        -1.85003
H         -5.00946        10.09388        -2.54325
H         -7.14869         8.98861        -2.02474
H         -8.53782         7.43727        -0.29771
H         -9.76492         5.51410         0.58994
H        -11.02044         3.43994         1.05527
H        -12.36454         1.10319         0.67300
H        -12.21898        -1.09794        -0.37300
H        -10.59425        -3.17272        -1.27094
H         -9.74225        -5.21800         0.50348
H         -8.48861        -7.57677         0.25056
H         -7.28567        -9.64128        -0.35350
H         -5.41457       -10.97806        -0.85281
H         -2.87196       -10.54729        -1.81615
H         -0.14812       -10.93280        -1.48676
H          2.50117       -10.97103        -1.76054
H          5.07028       -10.87979        -1.79540
H          7.13115        -9.83226        -1.12710
H          8.44868        -7.66656        -0.03839
H          9.68115        -5.40809         0.26275
H         10.17356        -3.01061         2.03052
