         344
 CSIRO Nanostructure Databank - Neutral Graphene Oxide Data Set
C          1.49564         3.61719         1.65175
C          0.34067         4.37220         1.94836
C          1.18281         6.24331         0.52369
C          0.19956         5.66575         1.50749
C          1.21544         7.75457         0.48671
C          0.01950         8.46238         0.51537
C          1.17977        10.59142         0.25404
C          0.00113         9.86018         0.40227
C          1.16795        12.05826         0.22130
C         -0.03755        12.77106         0.39187
C          1.14693        14.88151         0.27679
C         -0.04638        14.16025         0.38481
C          1.06803        16.38163         0.36514
C          0.11636        16.99475        -0.64055
C          1.21427        19.16135        -0.33427
C          0.16911        18.31814        -0.90131
C          1.13864        20.56126        -0.38139
C          0.04887        21.31166        -0.92631
C          1.16028        23.51749        -0.62786
C          0.06738        22.68615        -1.04388
C          1.21633        24.90017        -0.81078
C          0.15922        25.64209        -1.43033
C          1.39448        27.75375        -1.23234
C          0.21439        27.00443        -1.57508
C          1.48238        29.14367        -1.52838
C          3.85608         3.55895         0.92020
C          2.62457         4.23984         1.04474
C          3.69878         6.29096         0.21504
C          2.54348         5.60713         0.64138
C          3.66444         7.74958         0.06951
C          2.43513         8.45819         0.28567
C          3.65127        10.59051         0.00653
C          2.42543         9.88599         0.17856
C          3.63150        12.06189        -0.33981
C          2.37390        12.77801         0.08229
C          3.63622        14.92138         0.20252
C          2.37769        14.19412         0.16168
C          3.64025        16.33553         0.38379
C          2.40094        17.08148         0.31849
C          3.57237        19.22225         0.62872
C          2.37861        18.46901         0.20377
C          3.61011        20.68978         0.24942
C          2.25242        21.35335         0.18568
C          3.60174        23.57425         0.13156
C          2.29448        22.85038         0.05370
C          3.63281        24.93811        -0.00141
C          2.32609        25.68970        -0.12896
C          3.72322        27.76545        -0.48195
C          2.49944        27.08762        -0.66498
C          3.79280        29.16880        -0.76345
C          2.63982        29.84044        -1.26441
C          6.23181         3.49950         0.28628
C          4.98846         4.21043         0.39946
C          6.07677         6.20822        -0.68614
C          4.91580         5.59214         0.06236
C          6.07357         7.78613        -0.72657
C          4.84271         8.45577        -0.15338
C          6.13241        10.60728        -0.11998
C          4.86376         9.88972        -0.09721
C          6.13868        12.06826         0.01793
C          4.90021        12.78653         0.02266
C          6.10600        14.92784         0.25856
C          4.87754        14.20343         0.18278
C          6.11430        16.33394         0.27032
C          4.88037        17.02579         0.43751
C          6.17974        19.18347         0.62295
C          4.89607        18.45540         0.77401
C          6.34512        20.44346         1.11279
C          4.52339        21.57454         1.04781
C          6.05379        23.55448         1.05270
C          4.74751        22.86351         0.67132
C          6.08376        24.96725         0.48984
C          4.89114        25.65251         0.16432
C          6.14021        27.76773         0.04090
C          4.91530        27.06150        -0.07123
C          6.16931        29.20078        -0.16350
C          5.00101        29.87062        -0.54439
C          8.66624         3.44988         0.08561
C          7.42793         4.14700        -0.00078
C          8.58763         6.26023        -0.39702
C          7.41597         5.58569        -0.29055
C          8.59898         7.74572        -0.67715
C          7.33137         8.38233        -0.08558
C          8.58949        10.57518        -0.05854
C          7.33751         9.90311        -0.14508
C          8.63889        12.01198         0.39075
C          7.34638        12.74401         0.19948
C          8.62565        14.91077        -0.04072
C          7.39985        14.20863         0.52080
C          8.54480        16.35321        -0.16569
C          7.36949        17.04997         0.06680
C          8.58815        19.28942         0.07978
C          7.28351        18.55637        -0.19108
C          8.63614        20.60441         0.44408
C          7.42208        21.34892         0.75807
C          8.54484        23.50439         0.43322
C          7.33335        22.74361         0.70274
C          8.57130        24.89069         0.41946
C          7.32839        25.64615         0.43434
C          8.60649        27.76162         0.13808
C          7.34697        27.05486         0.26033
C          8.60318        29.22570         0.11767
C          7.39603        29.90809        -0.00071
C         11.13247         3.45890         0.11025
C          9.89939         4.10293        -0.04959
C         10.96928         6.30133         0.37692
C          9.92524         5.56168        -0.45301
C         11.02284         7.77650         0.06260
C          9.84748         8.45082        -0.18833
C         11.05464        10.61183        -0.11478
C          9.81025         9.88711        -0.12733
C         11.02744        12.05266        -0.27280
C          9.85192        12.76673        -0.13818
C         11.02322        14.91470        -0.87274
C          9.78871        14.20407        -0.31105
C         11.08173        16.38056        -0.50350
C          9.78690        17.09392        -0.51417
C         11.12208        19.23870        -0.07833
C          9.82265        18.58688        -0.31908
C         11.15523        20.61630         0.24931
C          9.91694        21.33465         0.72996
C         11.10440        23.48159         0.01427
C          9.82093        22.75751         0.20780
C         11.12798        24.97141        -0.01382
C          9.88918        25.66569         0.50242
C         10.95337        27.89961        -0.53523
C          9.79585        27.08793         0.03186
C         11.05126        29.18889         0.26991
C          9.83515        29.88287         0.39249
C         13.46888         3.59385        -0.56807
C         12.36660         4.20711         0.02044
C         13.41953         6.37596         0.70364
C         12.31058         5.62083         0.32829
C         13.45697         7.79007         0.44621
C         12.27226         8.48722         0.15882
C         13.53465        10.61955        -0.08384
C         12.26668         9.90996        -0.05507
C         13.54538        12.01327        -0.30217
C         12.29482        12.70444        -0.76979
C         13.51293        14.87211        -0.45166
C         12.31472        14.19389        -0.57196
C         13.56355        16.35320        -0.75550
C         12.26623        17.06756        -0.44180
C         13.56581        19.19736        -0.16622
C         12.31549        18.51049        -0.24500
C         13.58389        20.60572         0.00986
C         12.36525        21.30322         0.22584
C         13.60108        23.44248        -0.09967
C         12.37798        22.79171         0.46451
C         13.54113        24.85331        -0.65704
C         12.27046        25.63866        -0.32776
C         13.61374        27.91998        -0.46334
C         12.28560        27.09467        -0.82245
C         13.50161        29.11772         0.47081
C         12.25766        29.74987         0.68996
C         15.84894         3.54566        -1.11559
C         14.55678         4.24030        -1.41533
C         15.88928         6.42147        -0.78422
C         14.67686         5.77327        -1.37885
C         15.92657         7.76023        -0.35207
C         14.80568         8.46134         0.41942
C         15.98591        10.60368        -0.07031
C         14.74864         9.92120         0.07866
C         15.98837        12.03232        -0.08104
C         14.75579        12.74296        -0.17451
C         15.94395        14.91072         0.16943
C         14.73143        14.17003        -0.20766
C         16.00232        16.37010        -0.04450
C         14.81258        17.06520        -0.27354
C         16.04496        19.19095        -0.07692
C         14.81537        18.48493        -0.20397
C         16.04731        20.62844        -0.05272
C         14.83070        21.32165         0.01017
C         16.06922        23.49524        -0.20139
C         14.80124        22.77106        -0.07576
C         16.05872        24.86847        -0.16979
C         14.75732        25.57814        -0.11011
C         16.04222        27.73767         0.28575
C         14.74394        27.04532         0.06674
C         15.97365        29.09259         0.74621
C         14.67878        29.69552         0.93393
C         18.26367         3.48760        -0.68363
C         17.04161         4.21601        -0.87805
C         18.34348         6.31441        -0.57665
C         17.09379         5.66204        -0.78973
C         18.38711         7.73086        -0.53337
C         17.18240         8.46043        -0.35626
C         18.41680        10.68610        -0.64879
C         17.20529         9.88218        -0.21121
C         18.43718        12.03553         0.03161
C         17.24419        12.71304         0.10339
C         18.50983        14.89783         0.29166
C         17.22871        14.16080         0.41175
C         18.49669        16.31602         0.17182
C         17.25203        17.05310         0.07219
C         18.52725        19.18577         0.02124
C         17.27492        18.46963        -0.01077
C         18.53918        20.61747        -0.01299
C         17.30496        21.35211        -0.07479
C         18.55869        23.48601        -0.07109
C         17.31887        22.75480        -0.15728
C         18.56544        24.91148        -0.03835
C         17.31061        25.67179        -0.39947
C         18.46856        27.75160         0.48015
C         17.25272        27.06835         0.18271
C         18.41644        29.12834         0.87180
C         17.16375        29.77284         1.02508
C         19.46548         4.13242        -0.46618
C         20.77900         6.22991        -0.14833
C         19.54239         5.54559        -0.41835
C         20.87002         7.58803        -0.18190
C         19.70393         8.40891        -0.56242
C         20.94994        10.66974        -0.17801
C         19.74189         9.92258        -0.60230
C         20.93117        11.91749         0.31206
C         19.66889        12.67712         0.62474
C         20.92632        14.88126         0.21512
C         19.71358        14.17362         0.31626
C         20.93406        16.26495         0.12182
C         19.73578        17.01476         0.11685
C         20.96588        19.19443         0.08049
C         19.74776        18.46602         0.06716
C         20.97820        20.57290         0.07337
C         19.77353        21.32168         0.03565
C         20.97726        23.50702         0.24670
C         19.78209        22.76832         0.06525
C         20.96090        24.88493         0.33893
C         19.75512        25.61951         0.20007
C         20.89477        27.81533         0.61773
C         19.72959        27.07757         0.40102
C         20.84464        29.18495         0.94996
C         19.63370        29.82990         1.10261
O         19.95542         9.16692        -1.84070
O         10.41249        22.88484        -1.13170
O          4.07377        18.82166         1.93021
O          5.37866        20.98544         1.98074
O         13.89804         6.43831        -2.05454
O          9.67765        18.00011        -1.68074
O          1.92060        22.19300         1.33422
O         16.40184        14.54548         1.55608
O         14.44305        26.17875         1.21642
O         12.32226        26.88102        -2.22871
O         15.31895         8.36183         1.82344
H         14.83617         9.02611         2.36164
O          0.67520         5.84143        -0.81136
H          0.67189         4.86025        -0.83155
O         13.64192        16.39699        -2.23230
H         13.71864        17.34022        -2.49379
O          3.58689        12.08286        -1.82630
H          2.73681        11.67209        -2.09378
O         19.51495        12.58554         2.08234
H         18.72610        13.11413         2.33181
O          7.27638         8.03296         1.31705
H          8.06376         8.41270         1.76124
O          5.88932         5.74286        -2.05476
H          6.28613         6.44172        -2.63131
O         17.37410        25.87819        -1.85898
H         17.19448        25.01642        -2.29171
O          8.84792        11.92352         1.85547
H          8.61084        12.81651         2.21810
O         18.16467        10.99136        -2.06169
H         18.55953        10.24690        -2.57605
O         14.08775        28.49417        -1.69394
H         13.54523        28.03498        -2.40214
O         12.27601        12.51629        -2.23608
H         11.61911        13.16738        -2.59133
O         10.88212        14.88712        -2.33953
H         11.62391        15.42959        -2.69728
O          8.61991         7.92718        -2.11523
H          9.41192         7.44102        -2.44184
O         10.11056        25.78652         1.96177
H         10.39639        24.90596         2.29132
O         12.42698        23.03222         1.91253
H         13.33405        22.82887         2.22480
O         10.46346        28.37768        -1.81974
H         10.98819        27.85366        -2.49242
O          6.08844        23.70942         2.50047
H          5.95820        22.81209         2.88293
O          4.14224        20.73975        -1.11672
H          3.73466        20.01885        -1.64189
O          6.97503        18.70400        -1.60734
H          7.80263        18.46497        -2.09208
O         10.49563         6.20995         1.76334
H         11.19289         6.57541         2.34715
O          1.84673        25.87591         1.25242
H          1.78633        24.98643         1.66438
O         14.16680         3.93447        -2.78877
H         13.63335         4.70632        -3.09345
O         13.66648        24.69681        -2.08462
H         13.15117        25.46154        -2.48618
O          6.07982         8.20813        -2.11416
H          5.15226         8.29097        -2.41841
O         14.50671         5.76760         1.25897
H         15.11309         6.46682         1.60442
O          7.57569        14.30483         2.01269
H          6.70739        14.08843         2.41758
O         10.01559        21.44341         2.18078
H         10.11680        20.54317         2.55319
O          0.49552        16.66310         1.68839
H          0.53878        17.63355         1.82685
O         10.35920         5.63919        -1.84443
H          9.80747         5.01739        -2.36418
H          1.57446         2.57521         1.99140
H         -0.45004         3.91583         2.56219
H         -0.71604         6.22524         1.74560
H         -0.93547         7.92839         0.61245
H         -0.97207        10.36630         0.43646
H         -0.98861        12.23970         0.52278
H         -0.99490        14.70041         0.50861
H         -0.68406        16.37430        -1.07028
H         -0.57950        18.77753        -1.56288
H         -0.83826        20.77416        -1.29022
H         -0.81173        23.16790        -1.49506
H         -0.72733        25.10606        -1.79820
H         -0.62949        27.53950        -2.03482
H          0.60802        29.65582        -1.95526
H          3.92830         2.50689         1.23277
H          2.69948        30.91915        -1.46898
H          6.24394         2.42671         0.53267
H          5.03439        30.95459        -0.73102
H          8.64997         2.38086         0.35075
H          7.38618        31.00846        -0.03141
H         11.17231         2.36013         0.17589
H          9.82829        30.93602         0.71680
H         13.37775         2.51096        -0.76359
H         12.23884        30.71437         1.22561
H         15.84507         2.44496        -1.12139
H         14.62646        30.65499         1.47498
H         18.22858         2.38920        -0.71948
H         17.13456        30.82339         1.35149
H         20.38411         3.54441        -0.32434
H         21.67059         5.62589         0.07710
H         21.83764         8.08145        -0.01611
H         21.91804        10.17299        -0.34387
H         21.88595        12.38110         0.60113
H         21.88460        14.34520         0.22907
H         21.90444        16.77422         0.05975
H         21.92637        18.66391         0.10950
H         21.94724        21.08852         0.09190
H         21.93800        22.98630         0.35395
H         21.90819        25.40937         0.52201
H         21.88076        27.33760         0.54004
H         21.78434        29.73161         1.11108
H         19.59680        30.89052         1.38991
