         236
 CSIRO Nanostructure Databank - Neutral Graphene Oxide Data Set
C        -10.96532         0.67037         0.81933
C         -9.82640         1.49083         0.41331
C         -8.66817         0.77386        -0.14281
C         -7.40079         1.50011        -0.20367
C         -6.20226         0.75944        -0.59668
C         -4.98451         1.55197        -1.05517
C         -3.69444         0.75643        -0.94008
C         -2.45750         1.46725        -0.42690
C         -1.19969         0.80189        -0.92464
C          0.07518         1.57761        -0.95193
C          1.29043         0.79873        -0.65903
C          2.55377         1.53915        -0.75200
C          3.84358         0.83001        -0.62703
C          5.01987         1.67719        -0.90680
C          6.39236         0.68000         0.93640
C          7.60393         1.50605         0.56281
C          8.74137         0.74914        -0.10592
C         10.01628         1.55215        -0.15602
C         11.21728         0.76048        -0.29711
C         -9.80442         2.84752         0.55106
C         -8.66221         3.64240        -0.05855
C         -7.36426         2.83982         0.13446
C         -6.03724         3.43757         0.37807
C         -4.83910         2.83842        -0.24635
C         -3.69973         3.74277        -0.67761
C         -2.39986         2.98103        -0.55499
C         -1.21979         3.65508        -0.41346
C          0.06206         3.00193        -0.53325
C          1.23004         3.70332        -0.32499
C          2.51015         3.03849        -0.66484
C          3.79953         3.76937        -0.50014
C          5.06475         3.00072        -0.47412
C          6.16335         3.68360         0.36293
C          7.53243         2.99393         0.38644
C          8.74151         3.70981        -0.13548
C          9.95843         2.92056        -0.30712
C         -8.69378         5.15346         0.19779
C         -7.81179         5.90216         0.90887
C         -5.90472         4.81913         0.85810
C         -4.91330         5.68850         0.51239
C         -3.67953         5.11541        -0.01922
C         -2.50039         5.79641         0.03696
C         -1.19940         5.06107         0.14264
C          0.06145         5.84509        -0.10328
C          1.23150         5.14073        -0.08437
C          2.50556         5.79804         0.39201
C          3.77691         5.21542        -0.18221
C          5.06226         5.89443         0.13338
C          6.24438         5.17548         0.11437
C          7.54607         5.84396         0.43839
C          8.72270         5.07829        -0.15458
C         -7.51788         7.33138         0.87011
C         -6.25066         7.86748         1.03005
C         -4.95801         7.10015         1.02706
C         -3.67351         7.89000         0.92525
C         -2.49928         7.26040         0.24312
C         -1.23395         8.04320         0.07474
C          0.08061         7.35125        -0.29516
C          1.31540         8.01327         0.29993
C          2.48414         7.30892         0.38888
C          3.77626         7.97468         0.67359
C          5.04557         7.29595         0.36193
C          6.28474         8.02191         0.30195
C          7.48474         7.33075         0.19810
C         -6.12858         9.31168         1.10868
C         -4.95047        10.00938         1.10258
C         -3.66887         9.37406         0.93507
C         -2.48166        10.07371         0.82109
C         -1.20173         9.44704         0.56516
C         -0.00206        10.12392         0.60710
C          1.28676         9.46731         0.46089
C          2.46977        10.17908         0.50548
C          3.77245         9.51567         0.67146
C          5.04836        10.16796         0.30989
C          6.21135         9.47879         0.20555
C        -11.06817        -0.62422         0.46317
C        -10.04991        -1.30100        -0.42315
C         -8.73320        -0.55881        -0.43469
C         -7.55318        -1.31717        -0.99315
C         -6.23540        -0.57097        -0.89164
C         -4.99283        -1.29879        -1.30803
C         -3.68234        -0.58145        -1.17937
C         -2.39845        -1.36019        -1.18049
C         -1.13603        -0.66926        -0.80748
C          0.06017        -1.33270        -0.58007
C          1.27304        -0.52632        -0.32171
C          2.51130        -0.92474         0.46421
C          3.85317        -0.44226        -0.07544
C          5.05838        -1.29203         0.08878
C          6.31385        -0.68399         0.36196
C          7.53287        -1.38159         0.27596
C          8.84710        -0.65877         0.52376
C         10.02320        -1.40879        -0.05992
C         11.20669        -0.61558        -0.29847
C         -9.90683        -2.77863        -0.11575
C         -8.72247        -3.46077        -0.16191
C         -7.45235        -2.70440        -0.36093
C         -6.17705        -3.46485        -0.52016
C         -4.99487        -2.80339        -1.19748
C         -3.70761        -3.64586        -1.28750
C         -2.38863        -2.86108        -1.15956
C         -1.16155        -3.54861        -0.63664
C          0.09344        -2.79574        -0.53244
C          1.27591        -3.50969        -0.28034
C          2.60841        -3.04080        -0.61922
C          3.76808        -3.46697         0.03319
C          5.03314        -2.72579         0.03604
C          6.25719        -3.43563         0.14963
C          7.50544        -2.77520         0.10257
C          8.73669        -3.53176        -0.12148
C          9.95322        -2.76744        -0.28904
C         -8.65044        -4.89385        -0.00223
C         -7.46817        -5.61789        -0.10375
C         -6.21201        -4.94825        -0.37973
C         -5.03145        -5.65122        -0.37791
C         -3.76794        -4.87717        -0.41171
C         -2.49400        -5.60190        -0.22078
C         -1.20196        -4.89790        -0.38953
C         -0.11624        -5.61557         0.37367
C          1.17731        -4.82209         0.40956
C          2.44600        -5.55116         0.69183
C          3.75342        -4.81047         0.64679
C          5.04181        -5.58787         0.68155
C          6.37748        -4.87785         0.59704
C          7.47702        -5.66138        -0.08306
C          8.67868        -4.91335        -0.31827
C         -7.42348        -7.04550         0.11946
C         -6.24336        -7.75964         0.10852
C         -4.98142        -7.07912        -0.13221
C         -3.78706        -7.78043        -0.11239
C         -2.50189        -7.08945        -0.30355
C         -1.20938        -7.84841        -0.16046
C          0.04469        -7.10085         0.06998
C          1.23108        -7.78031         0.27032
C          2.45748        -7.00622         0.45192
C          3.66537        -7.52741         0.02053
C          4.96252        -7.00672         0.28789
C          6.12705        -7.75773         0.03597
C          7.37101        -7.04454        -0.15938
C         -6.17577        -9.18283         0.42348
C         -5.02798        -9.89015         0.34170
C         -3.75563        -9.28913        -0.19910
C         -2.47470        -9.90710         0.33426
C         -1.26281        -9.27146         0.25757
C          0.00832        -9.90694         0.53828
C          1.22875        -9.25886         0.43001
C          2.45635       -10.03022         0.68657
C          3.66817        -9.68365         0.13866
C          5.05190       -10.06425         0.35710
C          6.11259        -9.21415         0.12162
O          5.59898         1.03892         1.80317
O         -3.89699         4.05087        -2.07778
H         -4.34690         3.26061        -2.51464
O         -5.02777         2.58770         1.16734
O         -5.23698        -2.15492        -2.49115
O         -3.17125        -4.92394         0.91872
O          2.57814         5.42346         1.80616
H          1.75275         5.71689         2.24817
O          2.74179        -2.19675        -1.69295
H          1.86449        -2.00362        -2.08451
O        -10.56919        -1.24018        -1.79354
H         -9.80044        -1.41533        -2.38804
O         -8.88447         3.60699        -1.50948
H         -8.88589         2.66911        -1.79910
O          6.09248         1.12091        -1.50563
H          5.90450         0.20423        -1.78915
O          8.40615         0.52676        -1.50588
H          9.22205         0.21304        -1.95093
O          7.67720         5.70861         1.90814
H          7.09752         4.96011         2.19759
O          3.78459         4.84040        -1.58608
O         -5.22753         1.88391        -2.40218
O         -7.84388        -1.51881        -2.41187
H         -6.98631        -1.75193        -2.85225
O          0.25542         7.54628        -1.72899
H         -0.64899         7.54957        -2.12362
O          3.59236        -8.64554        -0.81709
O          9.07900        -0.54582         1.94256
H          8.39667         0.03880         2.33584
O          5.65609         3.67461         1.73060
H          5.69222         2.73766         2.07079
O         -1.09311         4.81274         1.61395
H         -1.84548         4.23745         1.87641
O         -4.08252         7.29611         2.19563
O         -3.69849        -4.22494        -2.61294
H         -3.64670        -3.47118        -3.24498
O          1.69677        -4.90979         1.79006
O          4.40199        -5.13002         1.93217
O         -0.65716         1.28592        -2.19152
O         -2.46672         1.22282         1.02044
H         -3.32494         1.54869         1.38074
O         -6.90510         5.20748         1.74617
O          6.88380        -4.77124         1.96628
H          6.09749        -4.60054         2.53798
O         -3.73517        -9.58815        -1.64273
H         -3.00656        -9.03779        -2.02223
O         -0.66029        -5.67310         1.72902
H          0.09528        -5.48906         2.34123
O         -1.78052        -7.57223        -1.51256
O         -2.15280        -2.14318        -2.41629
O          7.92913         2.39223         1.67366
O         -2.20685         7.94545        -1.03914
O         -6.51484        -2.78348         0.75533
O          2.49311         2.37707        -1.97198
O          2.41102        -1.42758         1.56825
O          3.84781         8.74272         1.91893
H         12.14717        -1.14924        -0.50689
H         12.16906         1.28737        -0.46428
H         10.89368         3.47742        -0.47859
H          9.63582         5.63344        -0.42145
H          8.42793         7.89314         0.11514
H          7.14433        10.01760        -0.01768
H          5.04040        11.25485         0.13689
H          2.44606        11.27952         0.48241
H          0.00133        11.19285         0.87100
H         -2.50109        11.17009         0.92721
H         -4.97911        11.10710         1.17432
H         -7.06869         9.87982         1.18568
H         -8.35464         8.03267         0.71544
H         -9.39990         5.68229        -0.46085
H        -10.67766         3.37565         0.96270
H        -11.75753         1.14923         1.41522
H        -11.95235        -1.20887         0.75983
H        -10.84288        -3.34479         0.01705
H         -9.58749        -5.43113         0.21101
H         -8.36895        -7.56533         0.33843
H         -7.10117        -9.67503         0.76098
H         -5.02541       -10.96262         0.58993
H         -2.50339       -10.97366         0.60939
H         -0.00231       -10.98369         0.76765
H          2.37543       -10.90872         1.34467
H          5.27830       -11.10038         0.65506
H          7.11716        -9.66468         0.19219
H          8.25582        -7.63227        -0.45225
H          9.58854        -5.45129        -0.62862
H         10.85178        -3.29741        -0.64475
