         244
 CSIRO Nanostructure Databank - Neutral Graphene Oxide Data Set
C          1.24098         2.20091        -0.43359
C          1.20160         3.54864         0.09161
C          2.39119         1.48309        -0.52427
C          2.34421         4.20968         0.42462
C          1.17207         6.40155         1.08726
C          1.21094         7.74937         1.03368
C          2.44352         5.59698         1.03699
C          2.45197         8.50408         0.87641
C          1.26907        10.62294         0.26613
C          1.24520        11.92741        -0.07363
C          2.35772        10.00252         1.12179
C          2.42316        12.77119         0.04430
C          1.16215        14.94965        -0.30943
C          1.14875        16.28203        -0.54585
C          2.39813        14.16834        -0.22081
C          2.41750        17.02056        -0.91248
C          2.44677        18.51468        -0.68319
C          3.65976         2.03149        -0.02226
C          3.63364         3.48598         0.38514
C          4.96315         1.41199        -0.33119
C          4.89269         4.26855         0.34214
C          3.56164         6.35914         0.31686
C          3.62426         7.83576         0.64636
C          4.87175         5.61532         0.50218
C          4.91647         8.50722         0.59972
C          3.72171        10.78011         1.05795
C          3.65345        12.13034         0.34985
C          4.93881         9.97788         0.59785
C          4.85729        12.81452         0.17442
C          3.61953        14.87453        -0.24213
C          3.60417        16.34973        -0.26234
C          4.85261        14.20413        -0.11606
C          4.90279        17.10043        -0.21143
C          3.61468        19.19760        -0.60941
C          4.91617        18.53916        -0.55904
C          6.15372         2.09961        -0.18060
C          6.15796         3.61210        -0.15389
C          7.40775         1.45854        -0.32177
C          7.41986         4.27733         0.34723
C          6.10140         6.33325         0.97937
C          6.09680         7.80378         0.66671
C          7.40250         5.62305         0.66057
C          7.38311         8.54853         0.96259
C          6.11404        10.63180         0.39960
C          6.17267        12.14313         0.50715
C          7.39823         9.83699         0.14264
C          7.29417        12.69868        -0.35420
C          6.08913        14.93831        -0.29874
C          6.14540        16.32296        -0.34941
C          7.28846        14.16199        -0.63785
C          7.38606        17.03636        -0.52746
C          6.11739        19.18422        -0.68143
C          7.38451        18.47441        -0.59644
C          8.63189         2.15709        -0.20225
C          8.66083         3.54931         0.17514
C          9.85943         1.47980        -0.40619
C          9.89229         4.18685         0.39489
C          8.64397         6.37906         0.77049
C          8.65986         7.74700         0.75235
C          9.91649         5.58355         0.98136
C          9.97239         8.52306         0.86376
C          8.66717        10.69375         0.42379
C          8.59456        11.97397        -0.39737
C          9.95677         9.91531         0.21944
C          9.84578        12.73699        -0.57900
C          8.60883        14.88345        -0.73998
C          8.61395        16.34127        -0.56905
C          9.86478        14.11767        -0.59583
C          9.85503        17.01749        -0.55961
C          8.60436        19.14774        -0.62772
C          9.85262        18.45413        -0.57708
C         11.08529         2.13805        -0.26377
C         11.11109         3.50531         0.15494
C         12.32808         1.46335        -0.53958
C         12.38328         4.18455         0.28901
C         11.15830         6.32897         0.56705
C         11.16028         7.68927         0.44394
C         12.38655         5.57182         0.46111
C         12.40285         8.35929        -0.00007
C         11.07920        10.53903        -0.22362
C         11.09366        11.94244        -0.82220
C         12.37936         9.81487        -0.35223
C         12.34616        12.72699        -0.50465
C         11.09803        14.85808        -0.53422
C         11.09027        16.27803        -0.55057
C         12.33291        14.11144        -0.44647
C         12.33044        17.00519        -0.54201
C         11.08221        19.14098        -0.58358
C         12.31596        18.44672        -0.56212
C         13.54108         2.08119        -0.38909
C         13.62110         3.45537         0.06172
C         14.80697         1.30626        -0.67907
C         14.86387         4.09355         0.14191
C         13.65149         6.29707         0.62906
C         13.69850         7.74076         0.32478
C         14.92913         5.50770         0.53229
C         14.86967         8.45375         0.20440
C         13.65712        10.54581        -0.26290
C         13.66376        11.99703        -0.69015
C         14.85158         9.88587        -0.02806
C         14.78987        12.73098         0.01461
C         13.59085        14.86511        -0.42022
C         13.56401        16.31348        -0.51199
C         14.79064        14.18974        -0.36994
C         14.78900        17.04707        -0.48894
C         13.54309        19.15551        -0.56273
C         14.77141        18.48215        -0.52596
C         16.02683         2.16803        -0.90674
C         16.08427         3.48044        -0.35306
C         17.13115         1.64355        -1.56181
C         17.32253         4.16578        -0.33151
C         16.16156         6.26785         0.16138
C         16.17922         7.74832         0.09562
C         17.43026         5.50858         0.30859
C         17.46776         8.47145         0.30408
C         16.13234        10.60202         0.06055
C         16.11970        12.00461        -0.04788
C         17.37856         9.91533         0.29898
C         17.31552        12.74365         0.08776
C         16.04782        14.91400        -0.54607
C         16.03806        16.37443        -0.45288
C         17.35891        14.17779        -0.26568
C         17.26110        17.07761        -0.38161
C         16.02438        19.17762        -0.56008
C         17.22917        18.51178        -0.49158
C         18.34540         2.36841        -1.64488
C         18.45353         3.62394        -0.97932
C         19.48455         1.83062        -2.32489
C         19.72453         4.30367        -0.90408
C         18.71775         6.26117         0.41018
C         18.68130         7.78965         0.48712
C         19.89161         5.49761        -0.13535
C         19.86204         8.56593         0.84180
C         18.54711        10.67622         0.57000
C         18.50484        12.10791         0.49521
C         19.77729        10.00250         0.90822
C         19.63467        12.93242         0.84710
C         18.50742        14.99798         0.13288
C         18.48684        16.38846        -0.06282
C         19.62775        14.31386         0.70588
C         19.70319        17.16550         0.16925
C         18.51774        19.28232        -0.63747
C         19.73094        18.55124        -0.11457
C         20.69534         2.46390        -2.25119
C         20.85978         3.66757        -1.48793
C         22.15940         4.17352        -1.24319
C         21.19838         5.83178         0.22118
C         21.11714         8.01036         1.24866
C         22.33279         5.19939        -0.33347
C         22.15999         8.78758         1.75153
C         20.88635        10.78571         1.33965
C         20.83137        12.28730         1.50345
C         22.04645        10.17411         1.80070
C         22.08462        12.98449         0.99592
C         20.83956        15.10584         1.16570
C         20.87076        16.53642         0.66664
C         22.08890        14.31309         0.84525
C         22.03367        17.29237         0.86265
C         20.91480        19.27702         0.06338
C         22.06538        18.65130         0.54400
O         16.13257         6.91435        -1.15398
O         12.34496         8.79421        -1.42119
O          4.08383        16.88447         1.00759
O          7.84313        14.48998        -1.94757
O         18.11550         5.60064         1.59516
O         21.43881         6.66555         1.29905
O          3.65131         2.42659         1.41930
O          7.65514        11.91738        -1.53766
O         16.89831        14.40955        -1.64197
O         14.39535         5.87088         1.84145
O         18.71766        19.58628        -2.03677
H         18.75954        18.73808        -2.52501
O          6.14381         3.93432        -1.59998
H          6.25778         4.90455        -1.69372
O          5.99309         6.28236         2.46498
H          5.05922         6.05063         2.68414
O          4.05477        11.15561         2.43776
H          3.99041        10.34111         2.98318
O          7.32968         8.84275         2.38536
H          7.05879         8.00449         2.83137
O          3.24937         6.28170        -1.10500
H          3.87537         6.86066        -1.58813
O         14.60650         0.39602        -1.76570
H         14.38635         0.91734        -2.56455
O          7.42052         9.36180        -1.21950
H          7.42178        10.15690        -1.80708
O         10.00666         5.42631         2.44177
H         10.78279         4.85511         2.62780
O          8.68599        11.11905         1.79836
H          8.78534        10.31508         2.36239
O         10.16488         8.76600         2.30063
H         10.06981         7.89872         2.75499
O         20.77174        15.21815         2.63437
H         19.98832        15.76636         2.85157
O         20.73792        12.51103         2.93936
H         20.78940        13.49040         3.08619
O         13.91953        11.99046        -2.11614
H         13.10464        11.63776        -2.54957
O          2.60923        16.82062        -2.35289
H          1.83254        17.19831        -2.81581
O          6.46395        12.51212         1.87780
H          5.73718        12.12758         2.42634
O          2.90914         5.41047         2.40923
H          2.43621         4.64314         2.79525
O         14.42768        12.69700         1.43531
H         15.15098        13.11227         1.94975
O          1.84112        10.11413         2.48035
H          1.77189        11.07037         2.68924
O         11.14335        11.70164        -2.29126
H         10.66417        12.43730        -2.73077
H          0.29958         1.76826        -0.80180
H          0.22496         4.05036         0.15285
H          2.39704         0.49587        -1.00959
H          0.22167         5.88804         1.29806
H          0.28085         8.31698         1.18054
H          0.37354        10.01220         0.07933
H          0.35259        12.34225        -0.56547
H          0.21018        14.43069        -0.11952
H          0.19057        16.82490        -0.57490
H          1.49357        19.06658        -0.70823
H          4.98700         0.32969        -0.53586
H          3.59855        20.29830        -0.56643
H          7.43445         0.37350        -0.50547
H          6.14413        20.26936        -0.86624
H          9.84402         0.42035        -0.70193
H          8.61537        20.24656        -0.68797
H         12.29506         0.42323        -0.89670
H         11.08792        20.24098        -0.60392
H         15.02805         0.66603         0.22379
H         13.52687        20.25512        -0.59250
H         17.06684         0.63961        -2.00651
H         16.01552        20.27426        -0.65077
H         19.37974         0.88407        -2.87406
H         18.42852        20.27124        -0.11699
H         21.58120         2.02864        -2.73633
H         23.02775         3.68031        -1.70247
H         23.33487         5.52537        -0.02644
H         23.06979         8.28378         2.10158
H         22.86573        10.77789         2.21212
H         22.98603        12.39482         0.76965
H         22.98664        14.83947         0.48843
H         22.92937        16.81465         1.28347
H         20.92809        20.35036        -0.17326
H         22.98767        19.22943         0.69248
