         294
 CSIRO Nanostructure Databank - Neutral Graphene Oxide Data Set
C          1.35968         1.96959        -0.35929
C          1.31858         3.35504        -0.03238
C          2.55462         1.31765        -0.51023
C          2.47633         4.07342         0.18511
C          1.18211         6.34786         0.45390
C          1.20100         7.70848         0.49143
C          2.43309         5.54746         0.44235
C          2.40134         8.50646         0.30981
C          1.37014        10.67259         1.03443
C          1.30168        12.01986         0.93151
C          2.45581         9.88481         0.44993
C          2.27007        12.75358         0.02117
C          1.15771        15.00142        -0.17510
C          1.13955        16.37982        -0.25570
C          2.30585        14.26121         0.15573
C          2.29668        17.27659         0.10647
C          2.49166        18.36660        -0.91887
C          3.80342         1.99606        -0.29172
C          3.75985         3.39576         0.10823
C          5.00307         1.38687        -0.67085
C          4.96042         4.11749         0.19042
C          3.67870         6.32125         0.13583
C          3.59140         7.78038        -0.30864
C          4.91129         5.54900        -0.22127
C          4.92280         8.48036         0.02858
C          3.66855        10.63120         0.05684
C          3.62525        12.09429         0.10764
C          4.84735         9.98011        -0.20136
C          4.79422        12.80513         0.19358
C          3.55490        14.98699         0.44424
C          3.58221        16.49594         0.40605
C          4.83973        14.24301         0.38741
C          4.93446        17.23194         0.28387
C          3.69301        18.90724        -1.21458
C          4.94116        18.41574        -0.67093
C          6.28435         1.94298        -0.29475
C          6.23825         3.42232         0.24516
C          7.56341         1.50226        -0.91824
C          7.52728         4.19836         0.20448
C          6.15728         6.30469        -0.51979
C          6.10850         7.83595        -0.74393
C          7.45872         5.65359        -0.14912
C          7.35296         8.57511        -0.32376
C          6.05963        10.71495        -0.77207
C          6.06777        12.27048        -0.43551
C          7.34514         9.97156        -0.33196
C          7.27699        12.68852         0.41078
C          6.03658        14.92890         0.43000
C          6.08387        16.30634        -0.18089
C          7.32197        14.20840         0.60513
C          7.39445        17.09172        -0.05995
C          6.15095        18.96232        -0.99297
C          7.39915        18.38081        -0.49953
C          8.71619         2.20532        -0.84533
C          8.83601         3.48226        -0.07239
C         10.03355         1.76214        -1.46063
C          9.97030         4.39223        -0.48313
C          8.67219         6.45898        -0.58735
C          8.55916         7.80281         0.13994
C          9.94963         5.73345        -0.26716
C          9.86689         8.59158         0.02268
C          8.52076        10.66194         0.00810
C          8.54790        12.12280        -0.28414
C          9.66440         9.97080         0.71112
C          9.81714        12.85244         0.04439
C          8.62297        14.96907         0.59133
C          8.64498        16.51289         0.56483
C          9.84478        14.21831         0.20434
C          9.91570        17.13134        -0.00397
C          8.64623        19.24565        -0.44804
C          9.94733        18.45712        -0.36908
C         11.22846         2.27798        -0.66448
C         10.98580         3.50590         0.16127
C         12.45943         1.72576        -0.75438
C         12.20751         4.19420         0.70615
C         11.08572         6.41170         0.34309
C         11.02373         7.76947         0.56232
C         12.21740         5.56371         0.78394
C         12.18566         8.47851         1.22579
C         10.97180        10.75324         0.68533
C         11.04302        12.09574         0.04554
C         12.22732         9.99782         0.95108
C         12.24877        12.71184        -0.17025
C         11.05420        14.94282        -0.20426
C         11.20416        16.38911         0.24727
C         12.26980        14.11078        -0.59017
C         12.40913        17.04407        -0.39986
C         11.20107        19.15478        -0.51433
C         12.45794        18.51877        -0.47572
C         13.60511         2.17432         0.03314
C         13.41093         3.29535         1.05393
C         14.76993         1.47883        -0.06350
C         14.76587         4.07713         1.37461
C         13.47770         6.29304         1.25956
C         13.45740         7.74114         0.70400
C         14.69802         5.49057         0.73497
C         14.73077         8.50107         0.91806
C         13.51248        10.62026         0.42007
C         13.47902        12.18447         0.53397
C         14.72087         9.98433         1.15029
C         14.80599        12.79840         0.00494
C         13.58959        14.78646        -0.90317
C         13.38827        16.27112        -0.92621
C         14.77955        14.32794        -0.07799
C         15.24236        17.39451        -0.62254
C         13.66730        19.28732        -0.42305
C         15.00606        18.79589        -0.31285
C         15.93267         1.80290         0.83617
C         16.06155         3.34681         0.89133
C         17.26836         1.07941         0.62092
C         17.15329         4.14194         0.23947
C         15.99912         6.28858         0.83728
C         15.99454         7.78693         0.82942
C         17.17476         5.61765         0.24237
C         17.11933         8.49500         0.12645
C         16.04363        10.69476         0.81267
C         15.98209        12.21664         0.83038
C         17.24894         9.97422         0.31622
C         17.22968        12.90624         0.28707
C         16.12921        15.07053        -0.28259
C         16.12607        16.58197         0.02344
C         17.18420        14.40508         0.63054
C         17.28957        17.29071         0.62168
C         16.16476        19.49142         0.06746
C         17.38666        18.76379         0.34017
C         18.23198         1.43567        -0.26264
C         18.15658         3.58757        -0.68421
C         19.67395         1.16786        -0.20773
C         19.37606         4.16401        -0.85940
C         18.32613         6.27102        -0.10833
C         18.31567         7.73855        -0.32145
C         19.53928         5.55423        -0.47368
C         19.62872         8.43514        -0.67487
C         18.35564        10.64723        -0.52027
C         18.41469        12.17721        -0.30056
C         19.66563         9.92030        -0.33187
C         19.73077        12.93217        -0.56122
C         18.56737        15.01452         0.60775
C         18.60463        16.50215         0.79492
C         19.78797        14.26977         0.19496
C         19.86528        17.19608         0.57357
C         18.60613        19.38116         0.48605
C         19.87147        18.66761         0.92765
C         20.64489         1.99891        -0.66345
C         20.51699         3.33685        -1.42122
C         21.80798         4.12749        -1.36288
C         20.76182         6.20112        -0.52521
C         20.79594         7.65732        -0.03351
C         21.90602         5.41989        -0.95642
C         22.08875         8.43395        -0.18205
C         20.94824        10.63009        -0.72413
C         20.99480        12.11170        -0.32090
C         22.14481         9.76690        -0.35300
C         22.14204        12.82140        -0.14806
C         21.05359        15.04051         0.01402
C         21.02082        16.51245         0.13016
C         22.18292        14.27682        -0.09191
C         22.15861        17.28019        -0.20345
C         21.08410        19.37791         0.40732
C         22.14671        18.69625        -0.11635
O         11.59996        10.75387         2.01867
O          6.09162        13.02622        -1.64358
O         16.32119         7.00215         2.06778
O          3.47060        15.83166         1.70535
O         17.14977        10.31116         1.73157
O         17.79575        16.95675         1.94755
O          3.33752         6.04263         1.51662
O         11.33000        14.58614        -1.61154
O          5.42856         5.64067        -1.61337
O          7.56134         5.21301         1.23704
O         17.87451         2.34818        -1.28608
O         17.38262        12.75135        -1.15598
O         14.42053        16.89313        -1.64239
O         17.22533         8.08092        -1.27009
O         17.24322         3.66780         1.68051
O          8.02590        14.51055         1.87270
O          9.78363         3.10790         1.10062
O         19.38534        14.27265         1.60741
O          6.34559         2.28676         1.12875
O         13.07371         2.64817         2.36107
O          8.28457         7.50617         1.51648
H          8.42580         8.32687         2.05477
O         20.48981         7.62136         1.38765
H         21.21930         7.16001         1.85088
O          8.50736        12.27014        -1.72254
H          7.61634        12.65833        -1.99197
O         15.01444        12.28642        -1.35188
H         14.74701        13.00179        -1.98930
O         19.75377        13.28061        -1.96352
H         18.81916        13.41062        -2.24644
O         13.85864        14.44021        -2.33316
H         12.98947        14.52777        -2.79208
O          8.66799        16.95564         1.96641
H          8.15008        16.28214         2.47302
O          5.88357        16.02324        -1.60158
H          5.98747        15.04539        -1.75372
O         13.54239        10.23347        -0.97069
H         14.15217        10.85218        -1.45806
O         17.98294        10.44521        -1.91413
H         17.43260        11.22393        -2.17252
O         15.53994         1.45729         2.19009
H         16.28574         1.71668         2.77291
O         11.40088        16.34609         1.68820
H         10.55085        16.60484         2.12216
O         19.76986         8.30864        -2.11902
H         18.92039         8.65182        -2.49083
O         13.26486        12.61169         1.88027
H         14.09007        12.46615         2.40479
O         15.82733        12.50356         2.23197
H         16.47753        11.94812         2.71529
O         13.33456         7.60005        -0.74956
H         13.36516         8.51708        -1.13955
O          8.56631        20.09895         0.70812
H          8.41912        19.52216         1.48793
O          1.77582        12.51285        -1.34015
H          1.82361        11.54624        -1.50085
O         16.70684        14.66169         1.95334
H         17.45179        14.54842         2.58075
O         12.03169         8.34907         2.64441
H         12.79381         8.80406         3.06790
O          5.92840        10.61721        -2.19412
H          5.88909        11.57013        -2.50469
O         14.89590         4.19142         2.79462
H         14.80664         3.28319         3.16420
O          3.38770         7.77385        -1.73915
H          3.72151         8.62561        -2.09781
O         12.01697         1.68711         2.14021
H         11.18803         2.20362         2.31348
O          9.27945         9.82557         2.09403
H         10.12033         9.91299         2.61925
O          7.14820        12.08558         1.70281
H          7.64283        12.64513         2.34478
O         19.91548        18.73127         2.40062
H         19.14057        18.20518         2.71439
O         16.52494        14.96295        -1.66721
H         15.74159        15.22192        -2.20869
O          5.96920         8.05871        -2.15266
H          5.54246         7.25357        -2.53184
O         10.09137         2.32704        -2.78519
H         10.96973         2.12138        -3.16663
O          8.61285         6.71394        -2.01040
H          8.81274         5.88460        -2.49339
O          5.25083        17.73938         1.59441
H          4.86429        17.11150         2.24646
O         14.48735        10.14818         2.58158
H         15.26139         9.75155         3.03984
O         14.52383         5.22096        -0.67518
H         14.17358         6.04965        -1.09433
O          5.22077         8.25336         1.42149
H          4.43014         8.47763         1.95619
O         13.51896         6.39844         2.67843
H         13.88404         5.56267         3.06019
O         10.13389         8.91243        -1.36012
H          9.76312         8.19464        -1.92896
O          1.89318        17.93312         1.34739
H          2.09236        17.29479         2.06981
O         20.96534        10.69285        -2.18619
H         20.70637         9.79010        -2.50573
O         20.26588         3.00183        -2.80797
H         19.38641         2.56336        -2.83435
H          0.41346         1.43252        -0.51267
H          0.33881         3.84758         0.03679
H          2.57608         0.25327        -0.78467
H          0.21745         5.82658         0.54049
H          0.24486         8.24068         0.61239
H          0.59930        10.13696         1.60939
H          0.47304        12.57116         1.40102
H          0.24123        14.44543        -0.42428
H          0.19598        16.88424        -0.51354
H          1.58174        18.77530        -1.38349
H          4.97414         0.47196        -1.28137
H          3.74956        19.73537        -1.93864
H          7.53988         0.55824        -1.48694
H          6.20213        19.86321        -1.62427
H         10.07543         0.63826        -1.53762
H          8.67172        19.91933        -1.34448
H         12.61469         0.83984        -1.39314
H         11.15937        20.25038        -0.61669
H         14.84783         0.64488        -0.77776
H         13.53169        20.37765        -0.32093
H         17.54111         0.37282         1.42005
H         16.15001        20.58024         0.22490
H         19.98708         0.25898         0.33313
H         18.67576        20.46847         0.32794
H         21.68331         1.65940        -0.50704
H         22.71161         3.61513        -1.72790
H         22.89115         5.91107        -0.98315
H         23.02872         7.88467        -0.00228
H         23.13770        10.24381        -0.38908
H         23.11109        12.30250        -0.09371
H         23.17630        14.74778        -0.13423
H         23.06411        16.78070        -0.57386
H         21.11668        20.47384         0.49381
H         23.03239        19.24854        -0.46298
