         424
 CSIRO Nanostructure Databank - Neutral Graphene Oxide Data Set
C          1.23054         2.11809         0.40813
C          1.20949         3.45557        -0.03502
C          2.42832         1.44729         0.54358
C          2.39211         4.12190        -0.33860
C          1.14268         6.34707        -0.51764
C          1.15868         7.69030        -0.38482
C          2.38648         5.55871        -0.85135
C          2.38578         8.47281        -0.43992
C          1.14356        10.64719        -0.46479
C          1.12621        12.02184        -0.49452
C          2.36488         9.91183        -0.47046
C          2.33237        12.78432        -0.51322
C          1.10535        14.99695        -0.46436
C          1.07448        16.35587        -0.48060
C          2.32979        14.21806        -0.53023
C          2.30334        17.15378        -0.62829
C          2.34263        18.59902        -0.27353
C          3.66886         2.05253         0.18876
C          3.63709         3.42547        -0.26832
C          4.85061         1.29285         0.47699
C          4.84061         4.20899        -0.40992
C          3.62978         6.33165        -0.43977
C          3.60718         7.78065        -0.42704
C          4.81044         5.64612        -0.27575
C          4.86181         8.49927        -0.47151
C          3.58896        10.64184        -0.52402
C          3.57412        12.07565        -0.52237
C          4.84138         9.94235        -0.56961
C          4.80697        12.80299        -0.54162
C          3.56750        14.90015        -0.56954
C          3.58766        16.37885        -0.63575
C          4.79505        14.21338        -0.57985
C          4.81113        17.03576        -0.08734
C          3.49218        19.25113        -0.01390
C          4.78130        18.53863         0.19192
C          6.11027         1.56556        -0.07808
C          6.08252         3.61873        -0.64896
C          7.40919         1.24232         0.33557
C          7.35403         4.21884        -0.40295
C          6.08830         6.36313         0.10132
C          6.06788         7.79422        -0.36481
C          7.37247         5.63360        -0.26037
C          7.34098         8.44838        -0.58685
C          6.04983        10.67959        -0.58339
C          6.05931        12.09177        -0.53453
C          7.33812         9.97968        -0.67759
C          7.30142        12.80347        -0.43452
C          6.08560        14.96706        -0.84549
C          6.09012        16.37366        -0.29980
C          7.32466        14.21230        -0.42767
C          7.26956        17.05701        -0.05751
C          6.07055        19.21759         0.14125
C          7.25700        18.50129         0.13371
C          8.56552         2.00844        -0.05747
C          8.55225         3.44007        -0.33203
C          9.81148         1.35896         0.03555
C          9.80463         4.14834        -0.34198
C          8.59683         6.31541        -0.28767
C          8.61469         7.76089        -0.25757
C          9.82981         5.59919        -0.33522
C          9.78354         8.46111        -0.08017
C          8.55138        10.68282        -0.27780
C          8.53236        12.07513        -0.21297
C          9.72520         9.92753         0.27525
C          9.76650        12.79344        -0.04835
C          8.52842        14.91775        -0.19618
C          8.53580        16.35225        -0.09235
C          9.76525        14.20044        -0.05271
C          9.74536        17.05092         0.07089
C          8.53078        19.17276         0.21222
C          9.72148        18.49045         0.20045
C         11.04125         2.02521        -0.18289
C         11.02194         3.44503        -0.33674
C         12.27200         1.31754        -0.17237
C         12.29783         4.17213        -0.66271
C         11.05504         6.31432        -0.21081
C         11.05617         7.76253        -0.00863
C         12.29114         5.62005        -0.24328
C         12.24113         8.45300         0.17992
C         11.01767        10.66812         0.11662
C         11.00893        12.05242         0.05075
C         12.26576         9.92900         0.51746
C         12.25480        12.78548         0.04408
C         11.00223        14.92834         0.03318
C         10.99611        16.33647         0.07921
C         12.24615        14.20073         0.02555
C         12.24376        17.06326         0.08076
C         11.00478        19.26412         0.40697
C         12.26241        18.47767         0.12900
C         13.52263         1.99707        -0.18081
C         13.54015         3.42850        -0.25813
C         14.74433         1.29956        -0.06026
C         14.74492         4.13452        -0.12482
C         13.50650         6.28056        -0.02376
C         13.52790         7.71394         0.44722
C         14.73454         5.57689        -0.06068
C         14.77821         8.45856         0.00808
C         13.52225        10.63904         0.07914
C         13.48999        12.05838        -0.02962
C         14.75778         9.91780        -0.07413
C         14.69360        12.79992        -0.18917
C         13.47587        14.92139        -0.01712
C         13.47694        16.35252        -0.01674
C         14.70300        14.20160        -0.11009
C         14.70748        17.06845        -0.12473
C         13.47451        19.16218        -0.00837
C         14.69068        18.47814        -0.15674
C         15.98211         1.98705        -0.00160
C         15.97948         3.42568        -0.00071
C         17.21688         1.30162         0.05439
C         17.19969         4.14534         0.06751
C         15.97526         6.28829        -0.02249
C         15.96638         7.75155        -0.11085
C         17.17542         5.57661        -0.00765
C         17.23443         8.43973        -0.24392
C         15.94197        10.60722        -0.32951
C         15.98318        12.09920        -0.50698
C         17.23090         9.89600        -0.63603
C         17.13046        12.72835         0.29256
C         15.96233        14.92972        -0.08633
C         15.96368        16.34656        -0.12761
C         17.17856        14.22348         0.06600
C         17.19699        17.05613        -0.06093
C         15.95615        19.26545        -0.40467
C         17.22796        18.49334        -0.13322
C         18.44653         2.00000         0.12874
C         18.43944         3.43724         0.16048
C         19.68691         1.31385         0.17033
C         19.67472         4.13573         0.32667
C         18.48975         6.26462        -0.25023
C         18.43279         7.76718        -0.12616
C         19.62341         5.63310         0.55791
C         19.69576         8.46206        -0.06979
C         18.46610        10.65291        -0.18910
C         18.44906        12.03240         0.04098
C         19.70884         9.92867        -0.07589
C         19.64702        12.77503         0.21268
C         18.39588        14.91374         0.17708
C         18.41628        16.34166         0.11158
C         19.63793        14.18565         0.31455
C         19.65625        17.03958         0.23515
C         18.42457        19.16475        -0.03287
C         19.66889        18.47162         0.15309
C         20.91147         2.00977         0.26052
C         20.87638         3.44880         0.38357
C         22.15881         1.33112         0.22144
C         22.15898         4.18105         0.69176
C         20.92484         6.32880         0.23581
C         20.88996         7.74718         0.03566
C         22.12681         5.64438         0.30894
C         22.18875         8.50780        -0.11097
C         20.88163        10.61795         0.17359
C         20.97606        12.09814         0.01261
C         22.09136         9.86156         0.54843
C         22.12806        12.78075         0.72503
C         20.86159        14.89421         0.48942
C         20.86917        16.32361         0.45658
C         22.06950        14.16524         0.79877
C         22.09988        17.04640         0.58135
C         20.88536        19.16316         0.23088
C         22.11058        18.47351         0.42652
C         23.39127         2.04749         0.10498
C         23.38077         3.44938         0.20241
C         24.63986         1.37436        -0.12231
C         24.57309         4.23315        -0.26348
C         23.37376         6.35731         0.26983
C         23.41322         7.73415         0.27077
C         24.65887         5.59333         0.44096
C         24.64253         8.43915         0.56681
C         23.29945        10.57044         1.05756
C         23.35015        12.06095         1.03820
C         24.58773         9.80454         1.12736
C         24.54826        12.71429         1.24904
C         23.25617        14.93503         1.21344
C         23.31284        16.36683         0.87036
C         24.56920        14.18206         1.39462
C         24.54700        17.03980         0.88110
C         23.34678        19.15528         0.47920
C         24.56012        18.46327         0.65670
C         25.87216         2.07033        -0.16746
C         25.88243         3.49757        -0.14625
C         27.12555         1.38137        -0.19615
C         27.09776         4.22069        -0.08054
C         25.83772         6.40257        -0.10181
C         25.85770         7.78727         0.49412
C         27.12447         5.64429         0.04450
C         27.11099         8.48201         0.64285
C         25.88452        10.53186         1.37536
C         25.85829        12.03656         1.64289
C         27.13331         9.86588         0.94684
C         27.08917        12.76513         1.13262
C         25.83253        14.91662         1.17803
C         25.79968        16.31840         1.00888
C         27.06501        14.19479         1.09725
C         27.03330        17.03547         0.88630
C         25.80023        19.15244         0.59491
C         27.02468        18.47694         0.68800
C         28.34230         2.06657        -0.19326
C         28.34980         3.51799        -0.13549
C         29.59030         1.36669        -0.13556
C         29.55344         4.23637        -0.12446
C         28.32751         6.34884         0.16779
C         28.32960         7.78658         0.38211
C         29.57233         5.64603         0.06168
C         29.54505         8.51305         0.34316
C         28.33476        10.60420         0.82707
C         28.30305        12.07145         0.96045
C         29.52523         9.92308         0.49863
C         29.52371        12.79307         0.88397
C         28.29255        14.92296         0.98629
C         28.25584        16.34235         0.94933
C         29.53969        14.20176         0.93002
C         29.51312        17.11760         1.00198
C         28.24230        19.17808         0.49688
C         29.49295        18.53628         0.57581
C         30.81408         2.03474        -0.14658
C         30.84151         3.51968        -0.45684
C         32.04148         1.35785        -0.00114
C         32.01896         4.19763         0.23047
C         30.80414         6.39004         0.08553
C         30.80161         7.80693         0.15519
C         32.05323         5.68990        -0.01198
C         32.03822         8.52127         0.14102
C         30.76529        10.71870         0.17090
C         30.81446        12.00995         0.97861
C         32.06199         9.94185         0.28589
C         32.05476        12.80001         0.64943
C         30.79832        14.89694         0.85844
C         30.82837        16.37251         0.95575
C         32.01077        14.20596         0.69037
C         32.01444        17.09904         0.45952
C         30.69049        19.18845         0.27029
C         31.94111        18.49636         0.17488
C         33.29122         2.03479        -0.00649
C         33.31289         3.47773        -0.04315
C         34.51715         1.33838        -0.05173
C         34.49801         4.17011        -0.16198
C         33.24562         6.37708        -0.14609
C         33.27657         7.81299        -0.04156
C         34.48836         5.62445        -0.56455
C         34.49579         8.52611        -0.07403
C         33.27298        10.63480         0.36738
C         33.28474        12.09173         0.52290
C         34.51763         9.92824         0.15996
C         34.50227        12.79975         0.47120
C         33.30212        14.98619         0.79116
C         33.21286        16.39078         0.24873
C         34.52115        14.21621         0.35255
C         34.35484        17.04756        -0.21799
C         33.11258        19.16293        -0.24211
C         34.32427        18.46065        -0.44193
C         35.74649         2.02717        -0.09785
C         35.75081         3.46746        -0.12868
C         36.98980         1.34343        -0.17899
C         36.96222         4.18431        -0.07003
C         35.77167         6.34484        -0.24195
C         35.77211         7.83219        -0.50857
C         36.92932         5.64238        -0.04976
C         37.03337         8.53556        -0.07015
C         35.75263        10.63540         0.15403
C         35.80265        12.06716         0.61112
C         37.00009         9.96302         0.04166
C         37.00328        12.81306         0.08687
C         35.66872        14.88310        -0.06697
C         35.55167        16.25677        -0.67341
C         36.93269        14.19859        -0.18678
C         36.83769        17.03430        -0.68847
C         35.52391        19.13167        -0.80653
C         36.77317        18.45526        -0.86855
C         38.19724         2.04220        -0.23496
C         38.20745         3.48002        -0.11378
C         39.44919         1.35681        -0.41537
C         39.44565         4.16336        -0.12348
C         38.19036         6.36668         0.22586
C         38.22919         7.83084         0.06449
C         39.50208         5.60445         0.17939
C         39.49299         8.49123         0.16448
C         38.22198        10.68993         0.14408
C         38.23100        12.11629         0.01896
C         39.48245         9.95692         0.28628
C         39.44357        12.83598        -0.29082
C         38.11773        14.92005        -0.51846
C         38.06256        16.35179        -0.73219
C         39.37457        14.24162        -0.56341
C         39.27386        17.08195        -0.97583
C         37.97090        19.16834        -1.09233
C         39.21349        18.50204        -1.15827
C         40.62632         2.04495        -0.51995
C         40.65674         3.47453        -0.38019
C         41.86115         4.21295        -0.49673
C         40.74373         6.35685        -0.07867
C         40.71827         7.79202         0.01490
C         41.88977         5.60457        -0.39705
C         41.91476         8.55270        -0.27558
C         40.79750        10.73437         0.02035
C         40.69182        12.16087        -0.37464
C         41.93996         9.90796        -0.37976
C         41.83279        12.87740        -0.76009
C         40.57122        14.96168        -0.88143
C         40.52476        16.40827        -1.06900
C         41.77533        14.24995        -0.99702
C         41.68332        17.16252        -1.32720
C         40.41393        19.22339        -1.41147
C         41.62316        18.55530        -1.49226
O          7.45950         9.14129        -1.88542
O         38.84759         5.93805         1.46450
O          4.65372        17.54343         1.28116
O         22.32121         9.97237         1.99203
O          6.07867         2.36325        -1.24989
O         25.20041         9.82841         2.46871
O         40.32829        10.47631         1.37457
O         30.29270        16.88670         2.23422
O         23.77958        14.64669         2.54865
O          3.06121        16.91771        -1.88817
O         18.83057         6.00493        -1.65041
H         18.19314         6.49674        -2.21054
O          6.15847        15.07793        -2.31220
H          7.01584        15.49932        -2.53358
O         16.80736        12.51774         1.69513
H         17.53980        12.88157         2.23506
O          2.42162         5.45372        -2.31410
H          2.48067         6.36482        -2.67156
O         24.31398         4.46295        -1.68823
H         24.27337         3.58415        -2.12109
O         31.04672         3.65338        -1.89086
H         30.30948         3.19355        -2.34384
O         24.88734         5.35796         1.84339
H         24.04478         5.01647         2.23213
O         30.95161        11.60303         2.37293
H         31.03076        12.41127         2.92199
O         12.26684         9.97136         2.01586
H         11.33622         9.75528         2.28248
O         31.77499         4.04128         1.66029
H         32.51990         4.45221         2.14658
O         12.34839         4.20004        -2.15126
H         12.32820         3.26654        -2.45397
O          6.10313         6.38621         1.58019
H          5.26534         6.80484         1.87251
O         13.63229         7.62706         1.91612
H         13.34282         8.50887         2.26853
O         10.98636        20.48482        -0.34565
H         10.96418        20.25713        -1.29737
O         15.94393        20.50053         0.32103
H         15.95755        20.29339         1.27765
O         25.63659         6.60370        -1.53344
H         26.42817         7.06414        -1.88157
O          9.48508         9.90193         1.76890
H          9.33603        10.83388         2.04351
O         35.79124         7.95283        -1.98265
H         35.13332         7.29288        -2.32149
O         25.94251        12.20920         3.08488
H         25.43729        11.46154         3.48393
O         34.40777         5.60114        -2.05119
H         35.03008         4.91016        -2.36500
O         17.33692         9.87049        -2.11729
H         17.16603        10.80217        -2.40834
O         30.64856        11.11053        -1.23122
H         30.68745        10.29672        -1.77609
O         35.27457        15.97670        -2.11089
H         35.27270        16.84260        -2.57342
O         16.28345        12.37809        -1.92696
H         15.44770        12.27513        -2.43019
O         19.34828         5.85252         1.96297
H         20.12216         5.52799         2.47213
O         22.28349         4.19140         2.18530
H         22.29115         3.25248         2.47470
O         33.50821        15.16548         2.23937
H         32.75630        15.69596         2.58259
O         22.34367         8.80891        -1.54217
H         22.45621         7.95485        -2.01212
O         36.01578        11.99296         2.08174
H         36.89098        11.57148         2.22608
O         21.31008        12.28863        -1.43318
H         20.65292        11.77437        -1.95084
H          0.28528         1.61486         0.65459
H          0.23772         3.95813        -0.12615
H          2.43566         0.40899         0.90600
H          0.17120         5.83274        -0.50745
H          0.20538         8.21375        -0.22489
H          0.18440        10.11318        -0.44420
H          0.15532        12.53490        -0.49997
H          0.15220        14.46091        -0.35382
H          0.11862        16.88426        -0.34545
H          1.39592        19.15895        -0.32958
H          4.75866         0.47296         1.20585
H          3.48225        20.34043         0.14651
H          7.57123         0.38796         1.01037
H          6.09543        20.31648         0.08903
H          9.82988         0.28206         0.25996
H          8.54204        20.26748         0.32162
H         12.25823         0.22336        -0.06470
H         11.04144        19.57418         1.49106
H         14.73532         0.20032        -0.01773
H         13.47563        20.26183         0.00370
H         17.22335         0.20134         0.03925
H         15.96018        19.55080        -1.49686
H         19.69431         0.21499         0.11543
H         18.43312        20.26312        -0.09543
H         22.16835         0.23413         0.14445
H         20.89445        20.25950         0.14019
H         24.64528         0.27541        -0.16781
H         23.36572        20.24732         0.34669
H         27.12668         0.28105        -0.20038
H         25.79759        20.23926         0.42359
H         29.57294         0.27226        -0.01455
H         28.20376        20.24944         0.24912
H         32.03620         0.26047         0.09166
H         30.66212        20.25516         0.00204
H         34.51547         0.23825        -0.06136
H         33.08211        20.24726        -0.42328
H         36.99539         0.24414        -0.22441
H         35.50239        20.22076        -0.95765
H         39.43829         0.26035        -0.50144
H         37.93412        20.25925        -1.22812
H         41.57155         1.51045        -0.69355
H         42.79476         3.67261        -0.70955
H         42.85246         6.10866        -0.55722
H         42.82830         8.00297        -0.53965
H         42.84208        10.39533        -0.77579
H         42.80466        12.37084        -0.83198
H         42.70600        14.76978        -1.25876
H         42.66303        16.67218        -1.39942
H         40.36747        20.31361        -1.54476
H         42.54885        19.11431        -1.68832
