         430
 CSIRO Nanostructure Databank - Neutral Graphene Oxide Data Set
C         27.90806        27.41009         0.33115
C         27.87574        28.80207         0.32497
C         26.64191        29.53643         0.32484
C         27.83650        31.53990        -0.54302
C         26.61766        30.86247         0.03268
C         27.78536        33.04695        -0.40411
C         26.65598        33.79160        -0.93756
C         27.80183        35.92404        -0.62777
C         26.64078        35.18997        -0.83773
C         27.79452        37.37013        -0.19673
C         26.60990        38.14940        -0.70577
C         27.86355        40.24153        -0.53961
C         26.64753        39.50069        -0.77749
C         27.85469        41.66655        -0.39920
C         26.64483        42.40120        -0.23628
C         27.88717        44.45224         0.16166
C         26.66003        43.75015         0.06097
C         27.94220        45.84323         0.60432
C         30.36966        27.38313         0.20947
C         29.11910        26.70950         0.31287
C         30.40079        28.79753         0.18482
C         29.15459        29.57078         0.53208
C         30.34830        31.64324        -0.17205
C         29.14221        30.95192        -0.05769
C         30.37021        33.06780        -0.38262
C         29.10496        33.80617        -0.31469
C         30.36024        35.95738        -0.53477
C         29.10199        35.21056        -0.88133
C         30.32822        37.38369        -0.48557
C         29.09941        38.09540        -0.46553
C         30.34023        40.23529        -0.45107
C         29.09495        39.51669        -0.47864
C         30.34714        41.65917        -0.41977
C         29.09302        42.37665        -0.33089
C         30.38692        44.50808         0.10783
C         29.08591        43.76891        -0.09483
C         30.26819        46.01083        -0.22954
C         29.07277        46.57402         0.51680
C         32.83699        24.54597         0.14052
C         31.64549        25.23640         0.15232
C         32.84546        27.36401         0.01552
C         31.61465        26.65396         0.11639
C         32.84975        28.79264        -0.06903
C         31.61642        29.50624         0.00833
C         32.82862        31.64964        -0.25479
C         31.61236        30.93967        -0.09904
C         32.82362        33.08113        -0.39770
C         31.57818        33.78232        -0.47302
C         32.81380        35.94935        -0.47516
C         31.56754        35.24151        -0.49994
C         32.80128        37.37704        -0.47921
C         31.57326        38.09380        -0.46986
C         32.80704        40.23492        -0.43444
C         31.57246        39.52245        -0.45176
C         32.80238        41.66359        -0.41338
C         31.57727        42.35799        -0.41628
C         32.84432        44.54653        -0.20325
C         31.56439        43.85651        -0.61492
C         32.81787        45.96001         0.04835
C         31.59941        46.69598         0.06276
C         32.83573        48.76508         0.48266
C         31.63599        48.08129         0.24471
C         35.38145        23.10071         0.31287
C         35.33136        24.51452         0.16830
C         34.08313        25.22709         0.09119
C         35.32262        27.35790        -0.12295
C         34.08247        26.64637         0.00433
C         35.31368        28.79802        -0.22840
C         34.08459        29.50736        -0.18884
C         35.30382        31.65778        -0.34539
C         34.07606        30.94049        -0.25913
C         35.29522        33.09097        -0.41896
C         34.05808        33.79680        -0.44048
C         35.28174        35.94755        -0.56755
C         34.05243        35.23635        -0.49430
C         35.26570        37.38546        -0.58565
C         34.03888        38.09713        -0.50279
C         35.27857        40.24049        -0.46904
C         34.04233        39.52353        -0.47377
C         35.28432        41.67804        -0.39678
C         34.04770        42.38985        -0.35307
C         35.32411        44.46934         0.21234
C         34.02531        43.80805        -0.17049
C         35.27431        45.96997         0.13016
C         34.07399        46.66949         0.22992
C         35.29585        48.78466         0.84119
C         34.06465        48.09793         0.49525
C         35.37097        50.09731         1.26149
C         37.81082        23.15176         0.53499
C         36.57759        22.44121         0.47263
C         37.80126        24.55137         0.32334
C         36.55577        25.23816         0.10693
C         37.81023        27.33128        -0.50879
C         36.53409        26.64304        -0.11735
C         37.78343        28.82536        -0.30908
C         36.55193        29.52149        -0.29944
C         37.78488        31.66804        -0.42663
C         36.54617        30.95323        -0.34673
C         37.77880        33.10422        -0.51112
C         36.53465        33.80476        -0.49725
C         37.75995        35.92416        -0.74199
C         36.52670        35.23041        -0.58711
C         37.71944        37.37735        -0.97097
C         36.48000        38.12178        -0.67002
C         37.79468        40.24372        -0.29723
C         36.49722        39.51778        -0.57416
C         37.75006        41.72669        -0.56047
C         36.52650        42.38898        -0.46251
C         37.79673        44.54996        -0.21609
C         36.48757        43.89660        -0.59987
C         37.81911        45.88108         0.16027
C         36.56137        46.66441         0.14020
C         37.80749        48.54501         1.37438
C         36.58533        48.09376         0.59709
C         37.82294        50.05663         1.52283
C         36.63257        50.73343         1.51755
C         40.28040        20.42392         1.43462
C         39.11587        21.06437         1.06502
C         40.19914        23.26461         1.12041
C         39.04333        22.48257         0.88899
C         40.23280        24.65092         0.81215
C         39.03215        25.30313         0.38486
C         40.26475        27.40218         0.00923
C         39.04774        26.67316         0.04695
C         40.23868        28.79570        -0.29734
C         39.01108        29.52733        -0.34100
C         40.26078        31.69145        -0.48586
C         39.01661        30.96474        -0.41876
C         40.25486        33.11627        -0.61151
C         39.01000        33.81903        -0.62251
C         40.25178        35.97149        -0.85972
C         38.99590        35.24653        -0.76012
C         40.27778        37.37903        -0.91343
C         39.02341        38.12718        -1.04412
C         40.23371        40.25599        -0.87707
C         39.04528        39.57795        -0.80253
C         40.23092        41.74734        -1.12738
C         38.97769        42.44142        -0.65948
C         40.27371        44.52967        -0.32141
C         39.01647        43.82618        -0.40968
C         40.25995        45.92202        -0.00834
C         39.06657        46.58381         0.31261
C         40.30072        48.58077         1.05342
C         39.09081        47.94150         0.83143
C         40.37301        49.86267         1.78887
C         39.09356        50.66594         1.97772
C         40.43931        52.69667         2.36859
C         39.25283        52.13478         2.08793
C         42.68023        20.55035         2.06802
C         41.45784        21.15702         1.74869
C         42.72836        23.40020         1.69169
C         41.37742        22.61591         1.70572
C         42.71415        24.73492         1.08864
C         41.48116        25.37416         0.78528
C         42.74809        27.39372         0.21095
C         41.50103        26.72430         0.32029
C         42.78276        28.80124        -0.23964
C         41.49325        29.52787        -0.47227
C         42.73216        31.69772        -0.49886
C         41.49281        31.00099        -0.44252
C         42.71439        33.10278        -0.73819
C         41.49845        33.81634        -0.76486
C         42.70477        35.99193        -0.91549
C         41.49626        35.26317        -0.86576
C         42.72958        37.40860        -0.89878
C         41.49392        38.11594        -0.90047
C         42.71997        40.25900        -0.96793
C         41.49034        39.54533        -0.95167
C         42.72472        41.69565        -0.81418
C         41.51809        42.42764        -0.72492
C         42.77836        44.47004        -0.01586
C         41.49485        43.81307        -0.44825
C         42.78966        45.97530        -0.12952
C         41.49672        46.74611        -0.23968
C         42.71742        48.74654         0.62622
C         41.53530        48.03662         0.55079
C         42.78989        50.05319         1.26229
C         41.65526        50.58682         1.84194
C         42.93670        52.65134         2.43982
C         41.67622        51.86510         2.65432
C         43.89138        21.26107         2.06243
C         45.19825        23.29120         1.37853
C         43.96808        22.62081         1.73024
C         45.18540        24.63423         0.96515
C         43.95752        25.36147         0.82578
C         45.23547        27.44727         0.28706
C         43.96536        26.73597         0.43613
C         45.24439        28.84781         0.10311
C         43.95982        29.61878         0.23300
C         45.22674        31.65458        -0.50314
C         43.98165        31.00794        -0.34871
C         45.27962        33.10592        -0.69624
C         43.99498        33.78872        -0.99898
C         45.23470        36.03528        -0.79856
C         43.98877        35.28945        -1.06382
C         45.23121        37.40738        -0.87180
C         43.96784        38.13643        -0.97882
C         45.23712        40.26236        -1.36005
C         43.95403        39.53449        -1.03099
C         45.23591        41.71433        -0.96282
C         44.00021        42.40440        -0.76242
C         45.23881        44.54172        -0.75582
C         43.99551        43.78913        -0.57920
C         45.24142        46.03188        -0.49273
C         43.95042        46.67394        -0.13558
C         45.27189        48.82555         0.31139
C         43.94981        48.14582         0.05877
C         45.26762        50.13000         1.01976
C         44.07045        50.75013         1.36695
C         44.04069        52.10685         1.89222
C         47.66053        23.27159         1.33029
C         46.46570        22.61483         1.49743
C         47.72395        24.63846         0.92451
C         46.44782        25.23845         0.38289
C         47.68889        27.44098         0.26899
C         46.45448        26.74300         0.35242
C         47.69432        28.83365         0.00212
C         46.45930        29.53960        -0.10450
C         47.69524        31.66102        -0.77979
C         46.43744        30.93942        -0.39355
C         47.71712        33.07324        -0.16852
C         46.44033        33.80660        -0.53193
C         47.74395        35.99804        -0.59054
C         46.44292        35.29734        -0.27767
C         47.73834        37.40683        -0.72148
C         46.49193        38.14567        -0.80037
C         47.73337        40.26454        -0.93394
C         46.49513        39.52824        -0.93683
C         47.71599        41.67372        -0.97023
C         46.47777        42.39683        -0.89044
C         47.73145        44.54110        -0.60573
C         46.50875        43.81560        -0.74446
C         47.72208        45.94090        -0.25306
C         46.51309        46.68068        -0.12148
C         47.75407        48.65818         0.63252
C         46.52546        48.02470         0.28577
C         47.71978        50.02323         1.10815
C         46.55401        50.70545         1.30704
C         50.20075        24.71041         1.13340
C         48.92626        25.35812         0.86083
C         50.15521        27.48005         0.45360
C         48.93861        26.75452         0.51136
C         50.18064        28.82680         0.04930
C         48.94555        29.54705        -0.16062
C         50.22399        31.61294        -0.83207
C         48.95387        30.89700        -0.48089
C         50.18907        33.11126        -0.58882
C         48.99390        33.82148        -0.52663
C         50.18507        35.98886        -0.76850
C         48.96359        35.27111        -0.60827
C         50.20972        37.39890        -0.80374
C         48.97594        38.12787        -0.81016
C         50.22218        40.28106        -0.83927
C         48.97839        39.54906        -0.87958
C         50.23497        41.68568        -0.86300
C         48.98389        42.44034        -1.23763
C         50.19239        44.55819        -0.58559
C         48.96670        43.86221        -0.73320
C         50.18685        45.93637        -0.29308
C         48.96173        46.61448        -0.04206
C         50.24577        48.51021         0.88670
C         48.97013        47.95558         0.46628
C         51.37174        25.37395         1.11898
C         52.61545        27.31618         0.03396
C         51.45679        26.86241         0.94351
C         52.65977        28.83066         0.03599
C         51.44656        29.53663        -0.07655
C         52.67427        31.65487        -0.30741
C         51.46903        30.93682        -0.32406
C         52.67494        33.09653        -0.51045
C         51.45793        33.78098        -0.65992
C         52.75170        35.98822        -0.78393
C         51.44161        35.23210        -0.90506
C         52.69021        37.44412        -0.57034
C         51.46253        38.12928        -0.73568
C         52.69206        40.25961        -0.62270
C         51.46179        39.55350        -0.71536
C         52.70198        41.70733        -0.65827
C         51.45785        42.41732        -0.72749
C         52.68414        44.54310        -0.50268
C         51.45665        43.83674        -0.65236
C         52.71751        45.96612        -0.37310
C         51.43979        46.76827        -0.41832
C         51.41503        47.92556         0.55077
C         55.09382        27.38398         0.39344
C         53.94277        26.68283         0.36141
C         55.12183        28.82321         0.21476
C         53.88970        29.53218         0.04027
C         55.14447        31.65461        -0.02494
C         53.90269        30.95607        -0.08138
C         55.13734        33.11142        -0.08567
C         53.92967        33.81455        -0.36921
C         55.13111        35.94290        -0.07226
C         53.95852        35.23756        -0.39225
C         55.15791        37.44754         0.07481
C         53.87649        38.15439        -0.30500
C         55.22138        40.27309        -0.21384
C         53.89580        39.54999        -0.39436
C         55.21063        41.66013        -0.87058
C         53.91864        42.40949        -0.62551
C         55.16068        44.53512        -0.39896
C         53.92251        43.82259        -0.52163
C         55.15256        45.92152        -0.29904
C         53.93515        46.62863        -0.30168
C         56.32481        29.53005         0.23367
C         56.33541        30.92393         0.11310
C         56.31169        33.83992         0.18166
C         56.30526        35.22883         0.21106
C         56.31812        38.09345        -0.65554
C         56.34323        39.42366        -0.78522
C         56.43815        42.45319        -0.50106
C         56.40681        43.78844        -0.33764
O         45.19485        45.55267        -1.87843
O         44.04071        34.47429        -2.30689
O         39.66192        49.87932         3.10819
O         42.35238        29.00540        -1.60669
O         52.22466        35.60492        -2.10039
O         36.73315        47.80126        -0.81727
O         28.30116        33.56987         0.86485
O         41.90134        23.28811         2.88943
O         44.59453        48.90898        -1.01206
O         38.27768        37.77354        -2.28520
O         55.34053        37.71022         1.51394
H         56.14365        37.22665         1.80256
O         42.86765        44.23640         1.45308
H         42.72120        43.27734         1.60297
O         46.42204        24.83009        -1.04524
H         46.48306        23.85081        -1.06244
O         50.33221        31.50546        -2.30384
H         49.47077        31.83735        -2.66278
O         41.40331        47.14537        -1.65233
H         42.22903        47.62321        -1.88552
O         51.39579        47.36265        -1.76502
H         50.53118        47.81699        -1.85673
O         52.26013        26.88413        -1.31050
H         52.92776        27.24452        -1.93060
O         27.78360        31.29534        -1.99014
H         27.77754        30.32447        -2.12896
O         37.93588        40.14136         1.17849
H         37.18914        40.63900         1.57692
O         36.22295        44.20919        -1.99380
H         37.00782        43.94432        -2.51833
O         27.65913        37.33215         1.27537
H         27.63254        38.26217         1.58596
O         55.45070        40.46126         1.20014
H         55.41212        39.56210         1.61393
O         40.18033        41.86045        -2.59789
H         41.03435        41.52785        -2.94913
O         51.73467        27.42939         2.25690
H         51.01235        27.15801         2.86081
O         29.23441        29.77466         2.00858
H         29.28474        28.88280         2.41471
O         37.90113        27.14691        -1.98193
H         38.73658        27.57311        -2.27265
O         35.59738        44.12492         1.60866
H         34.84501        44.44603         2.14932
O         30.70549        44.40754         1.52297
H         29.94543        44.77305         2.02384
O         31.40907        44.04765        -2.05959
H         32.22848        43.72479        -2.49137
O         37.63269        48.00668         2.72301
H         38.33124        48.42843         3.27980
O         55.27457        41.41613        -2.31004
H         55.21030        42.28260        -2.76394
O         47.64380        31.87438        -2.23860
H         47.29943        31.05269        -2.64929
O         45.29813        40.26753        -2.83882
H         45.29755        39.33162        -3.13408
O         49.04786        42.57343        -2.71823
H         48.90972        41.67865        -3.09678
O         46.32110        35.38309         1.21235
H         46.43147        36.32827         1.45620
O         47.71913        32.92609         1.27790
H         47.37007        33.77111         1.65017
O         29.96634        46.22057        -1.62762
H         30.54160        45.61283        -2.15264
O         43.72697        29.79095         1.68180
H         44.50135        30.26787         2.04957
O         29.18076        34.99992        -2.34108
H         29.26055        35.87970        -2.76690
O         41.63462        51.50283         4.06878
H         40.86864        50.88608         4.16907
H         26.96188        26.84865         0.30755
H         25.70930        29.00128         0.56532
H         25.66854        31.41831         0.03897
H         25.78433        33.24965        -1.33086
H         25.66756        35.69780        -0.92126
H         25.66265        37.62779        -0.89990
H         25.73821        40.04867        -1.06347
H         25.67945        41.87962        -0.28782
H         25.71590        44.28607         0.23517
H         27.02998        46.27683         1.04292
H         29.08288        25.61313         0.32003
H         29.07786        47.61802         0.86349
H         32.80828        23.44950         0.18242
H         30.71010        24.66455         0.20465
H         32.79653        49.84915         0.65775
H         30.70172        48.65852         0.21344
H         34.45419        22.51305         0.31596
H         34.46216        50.70062         1.39292
H         36.56432        21.35099         0.60056
H         36.61301        51.80834         1.75156
H         40.30340        19.32650         1.50269
H         38.22980        20.45020         0.85720
H         40.52033        53.79163         2.44896
H         38.37433        52.76920         1.89752
H         42.71082        19.45944         2.20515
H         42.95898        53.68726         2.81023
H         44.81501        20.68334         2.20521
H         44.94748        52.72197         1.80387
H         48.58504        22.72330         1.55750
H         46.48587        21.56537         1.81886
H         48.66676        50.52604         1.34522
H         46.60634        51.72021         1.72447
H         50.21391        23.62849         1.32436
H         50.25294        49.40150         1.53012
H         52.29993        24.82673         1.33930
H         52.36275        48.35899         0.90170
H         56.05109        26.87083         0.57364
H         53.97517        25.58937         0.47584
H         56.10201        46.46932        -0.21460
H         53.96077        47.72579        -0.24762
H         57.27283        28.98694         0.35690
H         57.30520        31.43838         0.12987
H         57.24932        33.31692         0.40943
H         57.23158        35.77043         0.45446
H         57.12661        37.46385        -1.05778
H         57.17955        39.91830        -1.30147
H         57.39529        41.91456        -0.43684
H         57.33068        44.34847        -0.12602
