         487
 CSIRO Nanostructure Databank - Neutral Graphene Oxide Data Set
C         37.80446        50.22242        -1.69762
C         36.71761        50.95087        -2.14322
C         37.95587        53.00717        -1.85664
C         36.79322        52.35559        -2.22115
C         40.15672        48.66709        -0.81662
C         40.15712        50.11125        -0.85320
C         39.01265        50.86234        -1.31320
C         40.29921        52.96405        -0.99373
C         39.09259        52.28701        -1.39962
C         40.49222        54.37497        -1.25133
C         42.52976        48.55830        -0.21363
C         41.27983        47.93641        -0.52582
C         42.49887        50.04040         0.12629
C         41.31023        50.79340        -0.43989
C         42.52867        52.90818         0.13408
C         41.36394        52.21053        -0.45682
C         42.63612        54.42657        -0.03746
C         41.62007        55.04708        -0.89659
C         44.93325        45.68758         0.07132
C         43.79160        46.40340        -0.08870
C         44.97024        48.58757         0.12468
C         43.73270        47.85705        -0.09181
C         45.01428        49.96466         0.15936
C         43.79561        50.74866        -0.26564
C         44.98805        52.79408         0.54532
C         43.81118        52.16890         0.24876
C         44.94815        54.20706         1.07992
C         44.03950        55.03378         0.02709
C         45.06761        57.07588         1.06871
C         44.07754        56.50195         0.37780
C         47.52445        44.27319         0.79852
C         47.49667        45.63856         0.56432
C         46.25845        46.33877         0.11708
C         47.43623        48.53406         0.77869
C         46.25182        47.83517         0.15519
C         47.46343        49.97989         0.36029
C         46.27593        50.67947         0.25248
C         47.45167        52.86031         0.37458
C         46.27498        52.13542         0.34468
C         47.45514        54.36933         0.46991
C         46.26445        54.89850         1.20751
C         47.52478        57.04006         1.79036
C         46.18153        56.30345         1.76338
C         47.57340        58.51156         1.78509
C         49.96326        44.25441         0.98970
C         48.73947        43.59321         1.02628
C         49.97029        45.68200         0.82070
C         48.72912        46.38129         0.63768
C         49.95543        48.50831         0.57254
C         48.73694        47.79678         0.57503
C         49.98531        49.93908         0.44752
C         48.73719        50.64975         0.14744
C         50.01035        52.83498         0.50016
C         48.73931        52.18573         0.13092
C         49.97905        54.26018         0.80759
C         48.78372        54.93686         0.92576
C         50.00443        57.14389         1.14850
C         48.81005        56.33266         1.42122
C         49.99502        58.50645         1.34017
C         48.74705        59.17799         1.64408
C         52.47886        41.43456         0.97655
C         51.27514        42.11855         1.01680
C         52.45793        44.23504         1.03179
C         51.24037        43.53378         1.03343
C         52.46505        45.71800         1.27651
C         51.18724        46.40368         0.86074
C         52.43626        48.53671         0.66820
C         51.19573        47.80129         0.69824
C         52.43157        49.93718         0.62093
C         51.18281        50.65318         0.53658
C         52.44041        52.75491         1.12665
C         51.17404        52.10188         0.60978
C         52.44180        54.25054         0.95320
C         51.25753        54.95317         0.92809
C         52.45152        57.10895         1.44348
C         51.27877        56.45506         0.70622
C         52.47356        58.60378         1.14489
C         51.23937        59.27670         1.15172
C         52.39523        61.39448         0.81534
C         51.22091        60.67920         0.97051
C         54.94920        39.98122         0.45655
C         54.96241        41.40320         0.71133
C         53.71028        42.11658         0.90818
C         54.93006        44.27555         0.86411
C         53.70301        43.54724         0.95506
C         54.93137        45.68783         0.69142
C         53.70578        46.41454         0.77104
C         54.90573        48.52571         0.38977
C         53.68708        47.80915         0.61872
C         54.89772        49.95082         0.33688
C         53.67815        50.66774         0.53234
C         54.88974        52.79919         0.40129
C         53.69409        52.07066         0.62716
C         54.86947        54.25086         0.49256
C         53.71654        54.92985         0.83497
C         54.99396        57.16113         0.85569
C         53.75913        56.38536         1.15295
C         54.93917        58.63950         0.78866
C         53.68090        59.32520         0.94993
C         54.89143        61.48112         0.64945
C         53.65115        60.74462         0.80075
C         54.92792        62.89624         0.61094
C         57.37711        39.92223         0.25994
C         56.09802        39.27120         0.27615
C         57.39539        41.38666         0.36103
C         56.17512        42.08436         0.69431
C         57.42974        44.28750         0.50147
C         56.23093        43.55113         1.05522
C         57.40772        45.66484         0.33378
C         56.15223        46.39379         0.42221
C         57.35256        48.53576         0.06767
C         56.13124        47.80293         0.27453
C         57.34222        49.93828         0.08797
C         56.12203        50.67585         0.19401
C         57.36861        52.83553        -0.00125
C         56.10898        52.10516         0.16690
C         57.36757        54.29280        -0.04946
C         56.04381        55.00569        -0.09214
C         57.33334        57.13987         0.07681
C         56.16393        56.45361         0.29808
C         57.31638        58.61544         0.09603
C         56.10322        59.33731         0.53992
C         57.35754        61.48493         0.47784
C         56.12455        60.77812         0.54806
C         57.36687        62.88804         0.48954
C         56.12664        63.57697         0.52035
C         59.85010        37.11379         0.22538
C         58.65812        37.78737         0.29530
C         59.87160        40.00985         0.23533
C         58.57922        39.21201         0.23917
C         59.64059        41.26085        -0.63858
C         58.56117        42.07700         0.07694
C         59.87464        44.21808        -0.15842
C         58.72695        43.50856         0.51814
C         59.96536        45.70779         0.13633
C         58.62178        46.41637         0.03962
C         59.77001        48.53849        -0.60632
C         58.58796        47.78875        -0.09698
C         59.75311        50.04009        -0.59423
C         58.64538        50.67851         0.21927
C         59.88389        52.89481         0.05317
C         58.56517        52.15623        -0.02399
C         59.80230        54.27548        -0.59081
C         58.54283        55.01340        -0.20604
C         59.82244        57.15384        -0.19079
C         58.58085        56.45087        -0.17141
C         59.87145        58.57503        -0.07937
C         58.60784        59.34699        -0.00365
C         59.88044        61.47550         0.11385
C         58.66345        60.72890         0.60537
C         59.85589        62.92423         0.18215
C         58.63923        63.61746         0.45074
C         59.87965        65.72003         0.53716
C         58.68762        65.00799         0.64646
C         62.45446        35.68608         0.32870
C         62.34759        37.09641        -0.01931
C         61.10978        37.79499         0.02338
C         62.29131        39.91737        -0.35774
C         61.09909        39.20561        -0.12930
C         62.23864        41.37538        -0.49577
C         60.94129        42.02904        -1.01023
C         62.13277        44.25769        -1.08001
C         60.89642        43.52819        -0.71777
C         62.17508        45.72477        -1.02189
C         61.08557        46.42274        -0.59599
C         62.22650        48.56270        -1.07944
C         61.06984        47.85793        -0.74713
C         62.19438        50.03687        -1.26508
C         61.01694        50.79487        -0.77309
C         62.28120        52.92049        -0.70071
C         61.06962        52.14767        -0.54269
C         62.29166        54.28981        -0.43854
C         61.08062        55.03810        -0.33775
C         62.33460        57.17287        -0.27357
C         61.08018        56.43232        -0.23663
C         62.32519        58.60783        -0.30875
C         61.07555        59.29898        -0.15422
C         62.27871        61.47571        -0.48003
C         61.03006        60.75722        -0.16683
C         62.29725        62.96938        -0.33974
C         61.05381        63.66264         0.04845
C         62.33699        65.79755        -0.00467
C         61.07982        65.06517         0.20851
C         62.33969        67.20952        -0.11796
C         64.82036        35.65537        -0.42025
C         63.61752        35.00483         0.22553
C         64.82235        37.13011        -0.12266
C         63.55830        37.82494        -0.22274
C         64.80882        39.97662        -0.44647
C         63.52954        39.22696        -0.41970
C         64.77972        41.49189        -0.52358
C         63.39176        42.09694        -0.43803
C         64.58587        44.34116        -0.41123
C         63.41815        43.52858        -0.80448
C         64.60889        45.67425        -0.69074
C         63.47226        46.37459        -1.44297
C         64.69580        48.58638        -1.27482
C         63.48355        47.88403        -1.23238
C         64.76208        50.01687        -1.23316
C         63.50301        50.78105        -1.39705
C         64.77497        52.78807        -0.46381
C         63.54810        52.30269        -1.26750
C         64.82762        54.29130        -0.52204
C         63.58014        54.99935        -0.06708
C         64.78392        57.15763        -0.56578
C         63.55475        56.47569        -0.34734
C         64.78319        58.59811        -0.61162
C         63.56186        59.31908        -0.45944
C         64.75181        61.49670        -0.61160
C         63.57235        60.75846        -0.45840
C         64.81999        62.92663        -0.47012
C         63.59541        63.61971         0.08619
C         64.77994        65.81672        -0.26060
C         63.55866        65.11212        -0.11909
C         64.77118        67.24116        -0.27210
C         63.52319        67.91012        -0.23858
C         67.47335        32.94306        -0.23802
C         66.23960        33.59201        -0.32368
C         67.32552        35.72596         0.08336
C         66.14433        34.97433        -0.16073
C         67.24551        37.15063         0.30691
C         65.98612        37.81023         0.21593
C         66.93577        40.03387         1.10378
C         66.00574        39.29837         0.14584
C         66.91959        41.57913         0.90767
C         65.81453        42.18538         0.34518
C         66.88840        44.48605         0.70010
C         65.67102        43.66053         0.36030
C         66.93902        45.92652         0.32002
C         65.87968        46.42771        -0.60086
C         67.21340        48.58632        -0.78979
C         65.96713        47.83469        -1.07940
C         67.26874        49.95334        -1.40718
C         65.98495        50.71051        -1.13390
C         67.25643        52.81814        -0.97208
C         66.03768        52.10571        -0.92376
C         67.25900        54.25719        -0.93608
C         65.99262        54.98715        -0.81281
C         67.19996        57.16674        -1.16556
C         65.97711        56.43054        -0.82563
C         67.23171        58.63550        -0.99542
C         66.00766        59.30304        -0.82573
C         67.28535        61.51652        -1.08552
C         65.96809        60.76175        -0.99494
C         67.28745        62.97264        -0.80005
C         66.01784        63.64650        -0.57114
C         67.22365        65.81673        -0.43957
C         66.02556        65.09629        -0.40183
C         67.24377        67.24189        -0.24677
C         66.02146        67.96192        -0.21166
C         67.23286        70.01526         0.30986
C         66.05910        69.36901        -0.01050
C         70.12865        31.61824        -0.56082
C         69.96520        32.94516         0.04972
C         68.66029        33.66971        -0.05474
C         69.81244        35.90079         0.22972
C         68.58867        35.07205         0.09282
C         69.67042        37.29540         0.68652
C         68.42293        37.90517         0.64008
C         69.26400        39.69567         1.98022
C         68.28003        39.28622         1.14407
C         69.20354        41.90482         1.95730
C         68.04396        42.42708         1.32282
C         69.39108        44.48711         0.99827
C         68.13960        43.78728         0.97310
C         69.46391        45.89393         0.72671
C         68.22471        46.66761         0.43698
C         69.59303        48.68039        -0.18219
C         68.32171        48.00046        -0.22487
C         69.69655        49.97230        -0.67601
C         68.51851        50.70346        -1.04057
C         69.75093        52.82391        -0.77556
C         68.51183        52.10193        -1.00217
C         69.72720        54.24607        -0.74788
C         68.47955        54.93835        -0.92775
C         69.76490        57.11990        -0.91113
C         68.51997        56.38891        -1.16718
C         69.80024        58.61321        -1.18922
C         68.47366        59.34041        -1.01441
C         69.77303        61.45333        -0.82504
C         68.52211        60.73686        -0.93901
C         69.76947        62.92580        -0.99948
C         68.48379        63.65208        -0.83772
C         69.79411        65.86708        -0.48312
C         68.49444        65.12649        -0.74424
C         69.69489        67.19497         0.16246
C         68.47022        67.92825         0.05837
C         69.64725        69.90940         0.97931
C         68.45380        69.29889         0.43197
C         69.71088        71.29234         1.28344
C         72.56326        31.82994        -0.52615
C         71.35958        31.07006        -0.74045
C         72.51280        33.12695        -0.12489
C         71.24166        33.73694         0.29171
C         72.22807        35.96420         1.06805
C         71.15829        35.23815         0.34254
C         72.11459        37.26222         1.37616
C         70.92205        38.11016         0.99881
C         71.70867        40.22433         2.21596
C         70.64527        39.13426         2.13010
C         71.64062        41.57503         2.12254
C         70.48593        42.41289         1.78575
C         71.83132        44.44474         1.15371
C         70.59485        43.76061         1.27874
C         71.87754        45.80087         0.88163
C         70.69437        46.55829         0.69592
C         72.01948        48.74200         0.43931
C         70.68674        48.08677         0.68752
C         72.16090        49.90433        -0.20520
C         71.03523        50.63539        -0.88761
C         72.14875        52.86629        -0.40281
C         70.97931        52.13208        -0.62542
C         72.12958        54.26100        -0.36746
C         70.94027        54.97773        -0.57773
C         72.18197        57.19050        -0.56695
C         70.92955        56.43701        -0.64735
C         72.18786        58.53206        -0.47679
C         70.88272        59.27678        -0.32985
C         72.16989        61.48873        -0.30946
C         70.95894        60.77253        -0.57983
C         72.23370        62.84958        -0.32402
C         71.09186        63.66906        -0.74047
C         71.90904        65.53144         0.80966
C         71.16227        65.17463        -0.45169
C         71.79624        66.76728         1.33621
C         70.76456        67.70089         0.90297
C         71.89796        69.67205         1.92675
C         70.76841        69.08659         1.29954
C         71.92741        71.02420         2.21879
C         70.82922        71.84042         1.88846
O         46.53365        47.15723        -1.09941
O         69.22995        65.82456        -1.82608
O         57.79082        59.20120        -1.20021
O         66.52046        61.19140        -2.29274
O         70.62001        63.39847        -2.09664
O         54.71847        56.64939         2.24837
O         69.02011        40.80325         2.80607
O         48.79415        51.42147        -1.11578
O         62.22778        62.38272        -1.66391
O         62.72534        50.41888        -2.58892
O         67.20791        46.74288         1.51407
O         65.95382        39.56698        -1.29908
O         65.84276        44.22660         1.70282
O         66.30007        46.71374        -2.00621
O         62.94175        43.73651        -2.18705
O         42.13880        53.84539         1.18706
O         70.56543        33.06373         1.39735
O         70.77048        35.81918        -0.94616
O         48.36678        56.44323         2.84421
O         67.85376        56.76218        -2.43324
O         64.61156        35.52114        -1.87338
H         63.82224        36.05685        -2.10316
O         59.71194        54.05163        -2.02909
H         59.77718        54.91997        -2.47864
O         51.48983        56.68995        -0.71085
H         50.77362        56.24393        -1.20879
O         60.10972        40.47947         1.59515
H         60.21117        39.69377         2.17184
O         47.33647        54.86631        -0.96197
H         47.73681        54.17677        -1.53756
O         63.68478        46.16618        -2.85967
H         64.63460        46.36334        -3.03880
O         64.52954        52.36077         0.91920
H         65.35831        52.49683         1.42617
O         59.11966        43.42773         1.94619
H         58.28348        43.24821         2.45229
O         70.44721        59.11774         1.05660
H         71.17605        59.42014         1.63740
O         42.41221        50.11429         1.57743
H         41.54016        49.75982         1.84873
O         60.34386        45.81564         1.54928
H         59.95145        45.02971         2.01304
O         70.16831        58.75692        -2.58152
H         69.47229        58.31018        -3.11264
O         58.86547        60.50089         2.04024
H         58.94667        61.37625         2.47437
O         47.18326        48.51432         2.22447
H         47.92270        48.97649         2.67187
O         70.70310        38.39895         3.37972
H         70.44606        39.01396         4.09867
O         70.31851        48.45532         2.05880
H         69.44674        48.04844         2.25515
O         65.18729        41.87628        -1.87546
H         65.78671        41.16243        -2.20064
O         67.29957        49.75839        -2.86698
H         67.93591        49.03744        -3.05909
O         44.58921        54.86085        -1.28285
H         45.55994        55.07226        -1.25859
O         63.64418        63.40510         1.54254
H         64.40175        63.91886         1.89410
O         63.59517        54.89909         1.41318
H         63.58588        53.93292         1.61946
O         66.31395        39.83116         2.40442
H         66.91394        40.23083         3.07308
O         56.46085        43.53749         2.55128
H         56.17343        44.41337         2.89108
O         59.00391        40.79297        -1.84526
H         59.53249        41.12614        -2.60934
O         63.71824        52.84032        -2.59685
H         63.18507        52.27562        -3.20261
O         52.18903        56.95156         2.85529
H         53.05561        57.04916         3.31247
O         71.25033        38.86534        -0.19470
H         71.32019        38.21794        -0.93061
O         43.82146        50.80424        -1.72037
H         44.69678        51.14726        -1.99772
O         52.43720        52.51273         2.58179
H         51.79558        53.13695         2.98361
O         45.76537        56.25132         3.17133
H         46.58136        56.04543         3.68512
O         71.92518        65.74966        -1.54328
H         71.41126        65.55395        -2.35949
O         44.27807        54.18626         2.34157
H         44.58928        54.95887         2.87555
O         59.36081        49.33473        -1.79963
O         55.68761        55.04878        -1.53860
H         56.46932        55.39090        -2.02412
O         71.30574        50.51462        -2.32585
H         70.61179        51.02007        -2.80072
O         61.08151        41.91544        -2.45278
H         61.86859        42.46589        -2.71349
O         60.16644        53.07525         1.46621
H         60.07601        52.18624         1.88593
O         59.08476        50.51223         1.62694
H         58.31311        50.71177         2.19988
O         52.52543        45.86514         2.75242
H         52.50354        46.82691         2.94622
H         37.71839        49.12911        -1.64013
H         35.79145        50.43571        -2.43363
H         37.98682        54.10366        -1.91052
H         35.92409        52.93186        -2.56758
H         39.24148        48.12394        -1.08743
H         39.74421        54.90308        -1.85908
H         41.22438        46.84111        -0.60550
H         41.78855        56.07011        -1.26473
H         44.87434        44.59142         0.13966
H         42.84324        45.85045        -0.15097
H         45.02577        58.16033         1.25490
H         43.27550        57.13673        -0.03460
H         46.59541        43.68718         0.76856
H         46.64422        59.08032         1.93043
H         48.69563        42.50762         1.18488
H         48.73923        60.27460         1.71184
H         52.44960        40.33752         0.98072
H         50.34280        41.53950         1.03746
H         52.33493        62.48298         0.68376
H         50.26607        61.22136         0.94619
H         53.99213        39.44498         0.42864
H         53.99678        63.47584         0.66457
H         56.03788        38.18561         0.11907
H         56.10620        64.67428         0.48782
H         59.83967        36.01704         0.27875
H         57.73268        37.20135         0.39188
H         59.86122        66.80666         0.69460
H         57.77176        65.56256         0.88993
H         61.56749        35.17444         0.72917
H         61.39321        67.76561        -0.09445
H         63.66227        33.94327         0.51069
H         63.48279        69.00554        -0.29857
H         67.50544        31.84983        -0.33618
H         65.33597        33.00222        -0.53082
H         67.20179        71.09199         0.52317
H         65.13042        69.95356        -0.04584
H         69.23877        31.06934        -0.89992
H         68.86838        71.95033         1.03099
H         73.52470        31.37705        -0.80689
H         71.45043        30.06263        -1.17092
H         73.41923        33.75006        -0.13481
H         73.11501        35.39421         1.38426
H         72.93124        37.76079         1.91925
H         72.70686        39.81576         2.44709
H         72.59763        42.10950         2.23899
H         72.77262        43.90272         1.31749
H         72.85712        46.29523         0.83322
H         72.90615        48.28347         0.90270
H         73.17163        50.32304        -0.32750
H         73.10796        52.34827        -0.26997
H         73.07618        54.78945        -0.19665
H         73.13626        56.64948        -0.62304
H         73.14725        59.06657        -0.43605
H         73.06750        60.92956        -0.01079
H         73.16196        63.34851        -0.01378
H         72.65873        64.83703         1.21438
H         72.43219        67.05132         2.18743
H         72.77245        69.05114         2.16456
H         72.81292        71.46546         2.69668
H         70.86097        72.91580         2.11174
