         429
 CSIRO Nanostructure Databank - Neutral Graphene Oxide Data Set
C          1.42051         2.33148         1.45702
C          1.22283         3.49201         0.75276
C          2.64552         1.62187         1.40588
C          2.30220         4.01476        -0.17065
C          1.11032         6.33860         0.02853
C          1.18187         7.70288         0.17930
C          2.24904         5.53658        -0.45217
C          2.33564         8.47243        -0.11447
C          1.14615        10.64122         0.13400
C          1.16057        12.01459         0.22980
C          2.35379         9.89463         0.01814
C          2.38080        12.73859         0.29667
C          1.20069        14.94076         0.47585
C          1.21527        16.32833         0.59054
C          2.38934        14.18206         0.43781
C          2.43060        17.03659         0.68179
C          2.47152        18.46450         0.83855
C          3.76926         2.18039         0.74131
C          3.67463         3.66271         0.44279
C          4.86172         1.42367         0.38952
C          4.85943         4.21058        -0.32058
C          3.51910         6.29450        -0.76837
C          3.50466         7.83235        -0.82423
C          4.83576         5.61451        -0.66782
C          4.83900         8.46565        -0.52274
C          3.59090        10.61207         0.04261
C          3.59841        11.99980         0.22567
C          4.91508         9.87431         0.02823
C          4.91207        12.68091         0.53675
C          3.64496        14.88092         0.51514
C          3.65434        16.30823         0.63698
C          4.87039        14.17975         0.45302
C          4.89178        16.99617         0.79138
C          3.65751        19.13125         0.99040
C          4.91429        18.43244         0.99651
C          6.01221         1.95729        -0.41186
C          6.00534         3.47181        -0.47152
C          7.29460         1.38467         0.13199
C          7.24932         4.15028        -0.85234
C          6.01698         6.33246        -0.88113
C          5.98816         7.79884        -0.84111
C          7.27819         5.62713        -0.86251
C          7.26232         8.54417        -1.01651
C          5.97974        10.70630        -0.73754
C          6.10242        12.09251        -0.17970
C          7.31147        10.00833        -0.80144
C          7.29390        12.79614        -0.29034
C          6.10359        14.86523         0.51413
C          6.09355        16.26823         0.77507
C          7.33657        14.18505         0.18599
C          7.33452        16.95089         1.13820
C          6.12274        19.11161         1.15708
C          7.37328        18.42452         1.19062
C          8.50497         2.04961         0.04965
C          8.55433         3.40584        -0.55764
C          9.73492         1.44886         0.42817
C          9.77611         4.20100        -0.37264
C          8.50525         6.29054        -0.79453
C          8.53941         7.76098        -0.98706
C          9.74441         5.60160        -0.57554
C          9.76390         8.52089        -0.52582
C          8.50842        10.73050        -0.94255
C          8.49123        12.16490        -0.80746
C          9.75354         9.92686        -1.10074
C          9.56778        13.16178        -1.27083
C          8.54996        14.88099         0.23298
C          8.64276        16.19357         0.89218
C          9.72952        14.33720        -0.34245
C          9.85981        16.98853         0.72652
C          8.60121        19.07031         1.25494
C          9.84710        18.38553         1.02736
C         10.97684         2.11219         0.25876
C         10.98240         3.52151        -0.07789
C         12.20474         1.44525         0.44919
C         12.22242         4.21881        -0.16675
C         10.99133         6.32947        -0.58175
C         11.01756         7.73147        -0.82120
C         12.21650         5.61958        -0.45996
C         12.22314         8.35681        -1.16956
C         10.85644        10.34039        -1.76118
C         10.90367        12.57029        -1.59449
C         12.20776         9.70480        -1.85632
C         12.11860        12.96779        -1.11700
C         10.96530        14.98142        -0.20531
C         11.02780        16.34730         0.27032
C         12.19621        14.33036        -0.59018
C         12.25140        17.06588         0.20068
C         11.06047        19.09246         0.95160
C         12.26305        18.45241         0.56330
C         13.45176         2.10826         0.28861
C         13.44873         3.51537        -0.01464
C         14.68680         1.43346         0.42273
C         14.68740         4.21532        -0.13144
C         13.45533         6.32321        -0.57031
C         13.44379         7.68649        -0.99761
C         14.66921         5.61267        -0.37124
C         14.70197         8.41495        -1.23718
C         13.35884        10.60764        -1.30863
C         13.34578        12.10742        -1.03769
C         14.70802         9.95174        -1.43990
C         14.65496        12.81809        -0.99330
C         13.40094        15.01742        -0.61596
C         13.45437        16.42010        -0.24599
C         14.63225        14.30631        -1.05503
C         14.64691        17.15290        -0.28555
C         13.48476        19.16870         0.49643
C         14.66967        18.53156         0.10558
C         15.93141         2.10752         0.27704
C         15.92707         3.51826         0.02443
C         17.17533         1.43317         0.38445
C         17.17441         4.21650        -0.11447
C         15.92330         6.35537        -0.26901
C         15.93132         7.85115        -0.65121
C         17.17033         5.62541        -0.26425
C         17.17886         8.58692        -0.83970
C         15.92472        10.69721        -1.07433
C         15.86465        12.13641        -1.01128
C         17.14479         9.98213        -0.90632
C         17.16136        12.88244        -1.09828
C         15.94051        15.07775        -1.04380
C         15.95021        16.58765        -0.82377
C         17.19953        14.33604        -0.86325
C         17.08564        17.06101         0.09225
C         15.91662        19.24916         0.09304
C         17.13553        18.57659         0.03151
C         18.41274         2.10926         0.20795
C         18.40451         3.50406        -0.06483
C         19.66753         1.43260         0.33383
C         19.68380         4.23227        -0.41676
C         18.42996         6.35380        -0.45782
C         18.43574         7.84098        -0.70389
C         19.64828         5.67259         0.12452
C         19.68674         8.58201        -0.44853
C         18.36589        10.71728        -0.39394
C         18.45641        12.12900        -0.92379
C         19.67898         9.96165        -0.46977
C         19.67609        12.87348        -0.53777
C         18.39112        14.98126        -0.46901
C         18.40259        16.37950        -0.16743
C         19.63336        14.23577        -0.35565
C         19.61814        17.08847         0.06041
C         18.36590        19.24799        -0.00861
C         19.60474        18.55779         0.06894
C         20.91103         2.10833         0.26331
C         20.94954         3.52640        -0.00325
C         22.13519         1.44009         0.49726
C         22.14705         4.23042        -0.03329
C         20.92782         6.43572        -0.11070
C         20.89690         7.81964        -0.24106
C         22.17033         5.69747        -0.12408
C         22.13264         8.58260        -0.05698
C         20.91687        10.71562        -0.41323
C         20.91313        12.13309        -0.40285
C         22.15231        10.02352        -0.33888
C         22.15676        12.83771        -0.35657
C         20.85214        14.90641         0.22355
C         20.83902        16.40199         0.10274
C         22.16115        14.26117        -0.17760
C         22.08919        17.09606         0.38477
C         20.80371        19.27053         0.06439
C         22.06849        18.63327         0.38612
C         23.37254         2.11841         0.40420
C         23.39983         3.52691         0.10396
C         24.60025         1.44768         0.60732
C         24.63508         4.17437        -0.08184
C         23.38253         6.35586        -0.23870
C         23.44352         7.80730        -0.05915
C         24.65689         5.61687        -0.55639
C         24.67421         8.56458        -0.36334
C         23.39045        10.70517        -0.45193
C         23.37421        12.12200        -0.50992
C         24.63838         9.94493        -0.50234
C         24.61818        12.90325        -0.66028
C         23.36966        14.98408        -0.07997
C         23.37370        16.39892         0.15881
C         24.63528        14.31203        -0.24231
C         24.58235        17.10981         0.22730
C         23.36036        19.38046         0.11849
C         24.60513        18.55126         0.35210
C         25.85065         2.06381         0.40990
C         25.86441         3.46578         0.00214
C         27.01325         1.29646         0.78657
C         27.07760         4.24193        -0.08965
C         25.88131         6.38351        -0.09889
C         25.91066         7.82091        -0.20955
C         27.08039         5.68050         0.06183
C         27.11160         8.50161        -0.05983
C         25.91235        10.65656        -0.73855
C         25.94480        12.15869        -0.71609
C         27.19691         9.90634        -0.43009
C         27.13081        12.86198        -0.22320
C         25.85245        14.97248        -0.04171
C         25.83678        16.39513         0.23064
C         27.10818        14.23097        -0.01091
C         27.02039        17.07393         0.54211
C         25.79486        19.20629         0.55237
C         27.03787        18.49966         0.68328
C         28.30359         1.56538         0.32417
C         28.33115         3.64203        -0.24757
C         29.58184         1.22395         0.80106
C         29.55914         4.23530         0.12620
C         28.33645         6.35619         0.24317
C         28.31820         7.83329         0.52758
C         29.55086         5.66671         0.29649
C         29.62236         8.52379         0.20434
C         28.42909        10.64542        -0.10925
C         28.36934        12.11111         0.22562
C         29.62021         9.95988         0.06062
C         29.61979        12.85657        -0.22358
C         28.35132        14.90306         0.38963
C         28.25350        16.31438         0.81610
C         29.57639        14.26875         0.34186
C         29.54365        17.09255         0.99438
C         28.24501        19.20709         0.80276
C         29.50743        18.56076         0.82069
C         30.74498         2.01295         0.50595
C         30.74095         3.45879         0.31652
C         31.99542         1.35718         0.57893
C         31.97667         4.17616         0.46487
C         30.81222         6.36702         0.45462
C         30.81868         7.82691         0.35213
C         31.98630         5.62599         0.56044
C         32.06494         8.55183         0.30613
C         30.88482        10.70161         0.12884
C         30.87860        12.07748         0.08194
C         32.12426         9.93996         0.22332
C         32.13259        12.84950         0.11995
C         30.83586        14.94523         0.63280
C         30.82456        16.38493         0.81367
C         32.05045        14.26228         0.55242
C         31.98664        17.13262         0.73143
C         30.70176        19.25453         0.65005
C         31.96082        18.57853         0.61922
C         33.21063         2.03869         0.40080
C         33.19313         3.46358         0.40786
C         34.45395         1.31700         0.32694
C         34.45829         4.20014         0.23327
C         33.26638         6.34362         0.81523
C         33.31805         7.82316         0.60692
C         34.56688         5.55524         0.89518
C         34.59526         8.47807         0.12183
C         33.40458        10.62703         0.32265
C         33.42911        12.10748         0.24813
C         34.61448         9.96474         0.41415
C         34.62661        12.79285         0.87891
C         33.32036        14.93497         0.84742
C         33.28523        16.46592         0.86161
C         34.61615        14.27247         0.57183
C         34.51166        17.17736         0.50638
C         33.16085        19.27109         0.46859
C         34.42974        18.60958         0.38258
C         35.67892         1.95059         0.22386
C         35.73343         3.42271         0.11149
C         36.92053         1.24590         0.28897
C         37.00810         4.11792         0.36754
C         35.82305         6.31635         0.50773
C         35.85857         7.71770         0.44629
C         37.03600         5.55117         0.44235
C         37.08967         8.42345         0.40444
C         35.89181        10.67635         0.49686
C         35.93592        12.06317         0.61824
C         37.12175         9.88079         0.42132
C         37.19474        12.85955         0.65561
C         35.77413        15.00917         0.40091
C         35.71865        16.47919         0.34856
C         37.07989        14.34806         0.37496
C         36.90985        17.25101         0.15016
C         35.60811        19.34772         0.24749
C         36.86034        18.68859         0.18771
C         38.13679         1.91449         0.33250
C         38.18683         3.36733         0.37891
C         39.38098         1.18708         0.37171
C         39.45286         4.03526         0.40446
C         38.28119         6.21928         0.40914
C         38.31714         7.66240         0.40950
C         39.50186         5.46031         0.37403
C         39.55052         8.31342         0.37085
C         38.34437        10.53886         0.37952
C         38.49723        12.01453         0.43767
C         39.57731         9.76055         0.24674
C         39.65282        12.54534        -0.35095
C         38.18099        15.18406         0.29178
C         38.15367        16.59818         0.01386
C         39.93056        13.91073        -0.40055
C         39.36315        17.35270        -0.17648
C         38.06919        19.40247         0.27071
C         39.31364        18.75892         0.13345
C         40.58091         1.83313         0.41010
C         40.65754         3.27458         0.40485
C         41.89249         3.94214         0.38931
C         40.76733         6.09970         0.32799
C         40.88447         7.60259         0.29447
C         41.93876         5.33885         0.34799
C         41.58758         8.06871        -0.98083
C         40.65074        10.32973        -0.73242
C         40.42757        11.70742        -1.21126
C         41.46878         9.32901        -1.43924
C         41.19581        12.27665        -2.23965
C         40.67984        14.49027        -1.43754
C         40.63918        16.85680        -0.63394
C         41.25694        13.66185        -2.41257
C         41.79074        17.61974        -0.47680
C         40.51741        19.51532         0.28026
C         41.74068        18.92643         0.06122
O         15.81250         7.44326         0.75555
O          2.65128         5.77765        -1.85855
O         22.82469         8.25073         1.20504
O         17.97256        12.39084        -2.25837
O         26.72219        10.13010        -1.83051
O         15.23943        14.79038        -2.31734
O         33.24930         7.28587         1.96603
O         10.81818        11.52354        -2.52524
O         22.07098        17.89020         1.64449
O         39.45938        14.73177         0.62205
O         28.78923        16.59915         2.15540
O          8.00673         3.47841        -1.92333
O         14.87693         9.01867        -2.54474
O         18.60798         6.85967        -1.81587
O         40.81455        10.37756         0.72827
O         38.14252        12.56532         1.73702
O          8.05038        16.27477         2.22755
O         13.16753        11.08737         0.05120
O         40.80816        15.84655        -1.60549
O         28.35688         2.38009        -0.83306
O          7.98969         8.16713        -2.26797
O         25.34145        12.70655        -1.93138
O         35.05342         4.02390        -1.07985
O         33.36302        15.68550         2.10774
O         33.03735        12.63692        -1.06103
O         34.75720         5.22108         2.30407
H         34.49830         6.02119         2.81819
O         24.74931         5.57461        -2.02458
H         25.55612         5.06563        -2.25361
O          9.65647         8.58653         0.92412
H         10.45392         9.03656         1.27408
O         23.35787        19.84910        -1.24424
H         23.52686        19.08914        -1.83815
O         18.11523        10.90754         1.03883
H         18.03804        10.02506         1.46017
O         28.38859        12.15758         1.68782
H         27.74706        11.50387         2.03643
O         19.44495         5.62007         1.55824
H         20.26616         5.28311         1.97411
O          3.69545         4.36823         1.72000
H          4.50641         4.10537         2.20308
O         34.47902         8.37748        -1.34114
H         35.24576         8.84113        -1.73879
O          5.87365         1.50464        -1.80106
H          6.59659         1.94688        -2.30476
O          2.13618         3.31669        -1.41569
H          2.45087         3.91969        -2.12997
O          5.15554        12.39313         1.98415
H          4.45394        12.85133         2.49538
O          9.02987        13.71114        -2.52806
H          9.16427        13.02038        -3.21333
O         29.58083        12.97832        -1.67034
H         30.48911        13.16214        -1.99062
O         19.72119         4.33581        -1.86758
H         19.79219         3.43087        -2.23592
O          5.36190         9.71184         1.39775
H          5.36397        10.60644         1.82747
O         12.44917         9.47283        -3.26000
H         12.09314        10.24239        -3.75381
O          3.28300         8.20394        -2.22603
H          2.74545         7.47649        -2.62147
O         16.70556        16.67430         1.44668
H         17.43387        16.92937         2.05134
O         28.17054         7.97775         1.99917
H         28.91270         7.48713         2.41403
O         20.75714        14.66703         1.68665
H         21.42472        15.24101         2.12207
O         16.18807        17.19760        -2.11336
H         15.70270        16.65504        -2.77662
O         34.40490        12.68339         2.31836
H         35.10659        13.19185         2.77765
O         41.72285         7.97491         1.41835
H         41.70954         8.96258         1.46767
O          5.47149        10.80014        -2.10847
H          6.18041        11.17651        -2.67100
H          0.58628         1.89963         2.03017
H          0.21722         3.93515         0.73194
H          2.70230         0.60088         1.81098
H          0.18946         5.82763         0.33909
H          0.30497         8.21202         0.60599
H          0.17860        10.12331         0.09091
H          0.20139        12.54668         0.27562
H          0.22611        14.43912         0.41021
H          0.26509        16.88089         0.62001
H          1.52117        19.01817         0.85101
H          4.86999         0.35030         0.63800
H          3.66422        20.22307         1.12360
H          7.27539         0.35374         0.51715
H          6.11701        20.20805         1.25178
H          9.72653         0.41128         0.79377
H          8.62665        20.16579         1.35787
H         12.19770         0.37549         0.70658
H         11.07759        20.16806         1.18188
H         14.68636         0.35454         0.63904
H         13.50446        20.23113         0.78071
H         17.18260         0.35397         0.59849
H         15.89974        20.34521         0.19376
H         19.66527         0.35421         0.55168
H         18.37670        20.34739        -0.05910
H         22.12778         0.36532         0.73193
H         20.79839        20.34491        -0.17074
H         24.57610         0.38665         0.89820
H         23.39373        20.29457         0.76462
H         26.86296         0.47981         1.50900
H         25.80733        20.30497         0.61121
H         29.71839         0.32358         1.41932
H         28.21617        20.30713         0.78901
H         32.01069         0.26347         0.69665
H         30.68264        20.34746         0.52461
H         34.41995         0.21988         0.40553
H         33.14236        20.36851         0.39673
H         36.90495         0.14580         0.31452
H         35.57053        20.44628         0.22309
H         39.34230         0.08787         0.36148
H         38.04398        20.48643         0.45502
H         41.51963         1.26027         0.43125
H         42.82538         3.36045         0.40180
H         42.90998         5.85273         0.34426
H         42.22300         7.34806        -1.51802
H         41.96804         9.62935        -2.37284
H         41.77482        11.62635        -2.90904
H         41.82922        14.10025        -3.23942
H         42.74410        17.22153        -0.84864
H         40.44463        20.57235         0.57124
H         42.67045        19.49621         0.19246
