         200
 CSIRO Nanostructure Databank - Neutral Graphene Oxide Data Set
C        -11.09521         0.52828         0.79253
C         -9.88583         1.27921         0.54966
C         -8.70040         0.58761         0.15596
C         -7.51061         1.32241        -0.12614
C         -6.29823         0.63374        -0.46597
C         -5.07448         1.38078        -0.70657
C         -3.85725         0.64460        -0.92708
C         -2.60886         1.37204        -1.24390
C         -1.30246         0.67479        -1.21363
C         -0.12110         1.37468        -1.24876
C          1.19398         0.72919        -1.67636
C          2.42508         1.38797        -1.05894
C          3.65360         0.68169        -0.86292
C          4.86985         1.40765        -0.60787
C          6.09268         0.70133        -0.38893
C          7.30787         1.42779        -0.16793
C          8.52743         0.72845         0.06001
C          9.74498         1.45944         0.28539
C         10.96992         0.72570         0.48602
C         -9.86106         2.66909         0.71319
C         -8.68312         3.40229         0.45362
C         -7.53287         2.72909        -0.00887
C         -6.36784         3.56211        -0.46889
C         -5.09395         2.78524        -0.68664
C         -3.91266         3.64534        -1.08074
C         -2.60347         2.87740        -1.23772
C         -1.31700         3.55076        -0.96253
C         -0.10695         2.82378        -1.05987
C          1.13763         3.51080        -0.91134
C          2.39454         2.78631        -0.89376
C          3.61733         3.50769        -0.68922
C          4.86433         2.83046        -0.59509
C          6.08810         3.56936        -0.38955
C          7.29653         2.85056        -0.15476
C          8.50223         3.56410         0.14094
C          9.71429         2.85176         0.33571
C         -8.62755         4.82843         0.69973
C         -7.42601         5.49775         0.73881
C         -6.14981         4.69862         0.55426
C         -4.93410         5.53953         0.24718
C         -3.78796         4.92529        -0.27510
C         -2.55077         5.61568        -0.28548
C         -1.32145         4.92954        -0.61517
C         -0.08840         5.62367        -0.51559
C          1.13791         4.91705        -0.69808
C          2.37351         5.64076        -0.61777
C          3.60501         4.93098        -0.63444
C          4.83689         5.65472        -0.62527
C          6.09435         4.99546        -0.38823
C          7.27826         5.70116         0.06236
C          8.44245         4.96622         0.30778
C         -7.33886         6.88425         1.06695
C         -6.12975         7.56730         1.06196
C         -4.90880         6.89947         0.64565
C         -3.70355         7.63534         0.54720
C         -2.51055         6.97824         0.13413
C         -1.28076         7.70313         0.10886
C         -0.07519         7.02700        -0.20823
C          1.14958         7.74570        -0.19554
C          2.37029         7.05498        -0.42749
C          3.59426         7.78649        -0.48036
C          4.74933         7.05178        -0.79807
C          6.50285         8.07190        -0.05964
C          7.28952         7.10015         0.49281
C         -6.06376         8.96773         1.39507
C         -4.89518         9.66737         1.31658
C         -3.66899         9.03467         0.89319
C         -2.47507         9.74198         0.81198
C         -1.25753         9.10053         0.43159
C         -0.03863         9.80711         0.38352
C          1.17060         9.15239         0.07467
C          2.42580         9.83632         0.11523
C          3.63575         9.19258        -0.13181
C          4.86059         9.89242         0.24745
C          6.11788         9.38409         0.42410
C        -11.11595        -0.82704         0.66628
C         -9.93689        -1.56378         0.28610
C         -8.70729        -0.83381         0.00055
C         -7.54057        -1.50718        -0.38041
C         -6.30856        -0.78599        -0.56518
C         -5.07266        -1.47663        -0.76516
C         -3.84789        -0.77038        -0.86346
C         -2.59780        -1.51521        -0.96728
C         -1.37573        -0.79695        -1.39241
C         -0.08327        -1.56523        -1.53708
C          1.22760        -0.81169        -1.59523
C          2.49297        -1.51946        -1.19743
C          3.69666        -0.74285        -0.84812
C          4.88430        -1.44587        -0.52876
C          6.10311        -0.71653        -0.33277
C          7.32354        -1.41568        -0.08087
C          8.53900        -0.69044         0.09046
C          9.76923        -1.39674         0.32179
C         10.98316        -0.63753         0.49639
C         -9.94302        -2.94704         0.29439
C         -8.77098        -3.69383        -0.03595
C         -7.66966        -2.96952        -0.78154
C         -6.33760        -3.72642        -0.78357
C         -5.04147        -2.95051        -0.85120
C         -3.77441        -3.64250        -0.53256
C         -2.54276        -2.88939        -0.72589
C         -1.26120        -3.59002        -0.72486
C         -0.08349        -2.96986        -1.08168
C          1.21720        -3.69690        -1.07377
C          2.47098        -2.95532        -0.85341
C          3.64742        -3.60922        -0.49259
C          4.88437        -2.87180        -0.37153
C          6.09679        -3.55724        -0.07039
C          7.32323        -2.83447         0.02832
C          8.55583        -3.53001         0.27537
C          9.76547        -2.78792         0.39319
C         -8.70952        -5.04665         0.19080
C         -7.48211        -5.79409         0.07270
C         -6.27778        -5.11304        -0.27840
C         -5.03369        -5.75342        -0.12748
C         -3.80121        -4.99916        -0.24698
C         -2.54293        -5.68692         0.10209
C         -1.23610        -4.97162        -0.17590
C         -0.04420        -5.82182        -0.33068
C          1.22349        -5.17285        -0.74685
C          2.46281        -5.74815        -0.21085
C          3.64073        -5.02696        -0.15437
C          4.88065        -5.69698         0.20582
C          6.10445        -4.97218         0.16035
C          7.34070        -5.66166         0.38738
C          8.55004        -4.93061         0.41608
C         -7.44138        -7.15447         0.39755
C         -6.21468        -7.85322         0.43600
C         -4.99880        -7.14459         0.22622
C         -3.75625        -7.85029         0.34556
C         -2.52578        -7.15442         0.22370
C         -1.30486        -7.84500         0.29415
C         -0.07053        -7.15529        -0.00370
C          1.20705        -7.95249        -0.14156
C          2.37526        -7.11192         0.32385
C          3.65206        -7.81616         0.68897
C          4.90336        -7.07503         0.50471
C          6.13544        -7.78172         0.63547
C          7.33506        -7.07157         0.57974
C         -6.17384        -9.25850         0.72591
C         -4.98526        -9.93381         0.80466
C         -3.73928        -9.24899         0.62360
C         -2.50114        -9.92313         0.74923
C         -1.28716        -9.25233         0.57476
C         -0.02013        -9.93585         0.74089
C          1.18348        -9.31791         0.51353
C          2.45332        -9.97883         0.71622
C          3.65202        -9.29666         0.71997
C          4.93901        -9.93713         0.84140
C          6.10186        -9.22160         0.82376
O         -6.78173         4.16641        -1.72526
H         -5.95771         4.36888        -2.24024
O         -5.66167        -3.53259        -2.07638
O          1.28863        -4.72270        -2.14025
O         -8.14272        -2.93386        -2.16158
H         -7.33439        -2.92304        -2.72793
O          2.08921        -1.33684        -2.65376
O         -5.86572         4.04562         1.82900
H         -5.80421         4.74311         2.51484
O         -1.79820        -5.01725         1.18770
O          2.74714        -7.23883         1.72124
O         -0.90603        -1.28029        -2.70957
O         -2.66079         2.15834        -2.51781
O          5.87069         7.73101        -1.27665
O          1.44366        -8.17938        -1.56260
H          0.66344        -8.64333        -1.93161
O         -4.21437         4.15832        -2.43512
H         -3.90503         3.45525        -3.05833
O          1.28357         1.06763        -3.08900
H          1.74920         0.31832        -3.52991
H         11.92411        -1.18418         0.65640
H         11.90035         1.29251         0.63753
H         10.63825         3.41216         0.54252
H          9.34473         5.49461         0.65004
H          7.93107         7.34719         1.35234
H          6.86313         9.99461         0.95767
H          4.69111        10.91768         0.61712
H          2.43151        10.89458         0.41916
H         -0.02851        10.88219         0.61710
H         -2.45694        10.81249         1.06577
H         -4.87036        10.73638         1.57441
H         -6.98969         9.47081         1.71100
H         -8.26584         7.42924         1.30447
H         -9.56351         5.36272         0.92570
H        -10.76689         3.19495         1.04984
H        -12.00177         1.07652         1.08784
H        -12.03959        -1.39092         0.86332
H        -10.83804        -3.48758         0.63889
H         -9.58978        -5.56562         0.60068
H         -8.37614        -7.68563         0.62916
H         -7.12454        -9.78952         0.87977
H         -4.97085       -11.01177         1.02176
H         -2.49809       -10.99749         0.98659
H         -0.04026       -10.97013         1.11868
H          2.45158       -11.06824         0.87996
H          4.97016       -11.03196         0.94665
H          7.06421        -9.74559         0.92263
H          8.29188        -7.59859         0.70998
H          9.49770        -5.46117         0.59084
H         10.70656        -3.32778         0.57607
