         404
 CSIRO Nanostructure Databank - Neutral Graphene Oxide Data Set
C          1.28054         3.67378         1.49186
C          0.09885         4.39853         1.51632
C          1.10711         6.27765         0.32002
C          0.01701         5.69765         0.97140
C          1.11876         7.63820        -0.14223
C         -0.09378         8.36080        -0.35424
C          1.07979        10.47951        -0.73923
C         -0.10507         9.68255        -0.74514
C          1.10598        11.82756        -1.12387
C         -0.01490        12.39796        -1.79526
C          1.28598        14.38215        -2.30614
C          0.07540        13.62880        -2.39306
C          1.23510        16.65051        -2.35073
C          0.02936        17.36519        -2.37505
C          1.12470        19.20528        -1.23076
C         -0.04306        18.60779        -1.75682
C          1.12442        20.59538        -0.79095
C         -0.07253        21.29037        -0.52362
C          1.13981        23.37511        -0.14674
C         -0.06379        22.63582        -0.18147
C          1.15659        24.80169         0.08758
C          0.01445        25.47385         0.64886
C          1.02847        27.69080         0.34084
C          0.00202        26.81372         0.90068
C          1.11310        29.14146         0.74986
C          0.33835        29.64155         1.89318
C          1.64365        31.73033         1.94874
C          0.54214        30.89321         2.37552
C          1.78010        33.07649         2.46711
C          0.75819        33.69746         3.22522
C          2.02603        35.77217         3.37336
C          0.87625        35.00688         3.66725
C          2.15758        37.13102         3.81267
C          3.68569         3.57235         0.97514
C          2.44137         4.19088         0.85520
C          3.63674         6.17296        -0.26363
C          2.32104         5.46832         0.13803
C          3.59970         7.65388        -0.31360
C          2.36380         8.31951        -0.31110
C          3.62576        10.56833        -0.42372
C          2.32671         9.80578        -0.30920
C          3.61736        11.98771        -0.81610
C          2.29195        12.71937        -0.75667
C          3.56024        14.85675        -1.35969
C          2.36787        14.02616        -1.53037
C          3.54426        16.26327        -1.40792
C          2.37499        17.10350        -1.65598
C          3.58210        19.17640        -0.99483
C          2.33852        18.46978        -1.22255
C          3.59543        20.60681        -0.84365
C          2.35916        21.29747        -0.67648
C          3.60015        23.42468        -0.42995
C          2.36540        22.70236        -0.41345
C          3.59550        24.84937        -0.31899
C          2.34939        25.51733        -0.11638
C          3.58301        27.72250        -0.24345
C          2.31488        26.98128        -0.17074
C          3.52068        29.20558        -0.26844
C          2.36712        29.92802         0.38849
C          3.86706        31.90287         0.89145
C          2.63478        31.19115         1.11691
C          4.00892        33.23676         1.40242
C          2.95317        33.82663         2.15748
C          4.24107        35.93421         2.30661
C          3.07660        35.17747         2.61432
C          4.35298        37.29306         2.75543
C          3.27382        37.86379         3.51373
C          6.11015         3.45975         0.99529
C          4.91598         4.14555         0.53946
C          6.08890         6.22641        -0.29712
C          4.91577         5.46263        -0.02963
C          6.04232         7.63692        -0.45130
C          4.83807         8.37307        -0.42457
C          6.05607        10.52537        -0.78488
C          4.87476         9.80631        -0.57364
C          6.06752        11.95604        -0.83086
C          4.80445        12.68046        -0.92647
C          6.00300        14.81006        -0.85674
C          4.80700        14.14643        -1.05101
C          6.04025        16.27477        -0.71659
C          4.74521        17.00678        -0.96091
C          6.03649        19.19179        -1.23303
C          4.77317        18.47520        -1.09653
C          6.06689        20.63213        -0.97132
C          4.83031        21.31375        -0.78763
C          6.05624        23.46137        -0.65128
C          4.82969        22.73699        -0.61696
C          6.04502        24.89154        -0.56866
C          4.81160        25.58722        -0.42468
C          6.05026        27.76147        -0.51044
C          4.78846        27.04021        -0.38049
C          6.07878        29.16553        -0.48047
C          4.82948        29.93971        -0.35235
C          6.15947        32.00749        -0.03048
C          4.93924        31.30985         0.19539
C          6.25852        33.39483         0.38052
C          5.18873        33.98392         1.11775
C          6.46993        36.09563         1.26684
C          5.30037        35.34196         1.55930
C          6.57629        37.45894         1.72512
C          5.50400        38.03066         2.45621
C          8.65838         3.46281         1.01662
C          7.36983         3.65952         0.44942
C          8.58558         6.21088        -0.22779
C          7.37094         5.59275        -0.46486
C          8.55855         7.67664        -0.15565
C          7.32281         8.33396        -0.67417
C          8.61472        10.55818        -0.63332
C          7.34950         9.81910        -0.86677
C          8.55968        11.97770        -0.60934
C          7.29800        12.64013        -0.71425
C          8.53537        14.86251        -0.30189
C          7.23835        14.09072        -0.49090
C          8.53295        16.32259        -0.56966
C          7.34476        16.98018        -0.79869
C          8.57770        19.18461        -0.83964
C          7.36903        18.41319        -1.13170
C          8.55045        20.59818        -0.86083
C          7.29966        21.32163        -0.89681
C          8.52219        23.46967        -0.76394
C          7.29226        22.75113        -0.76273
C          8.51354        24.90743        -0.74077
C          7.28806        25.61150        -0.64704
C          8.50101        27.77384        -0.79761
C          7.28191        27.04748        -0.63485
C          8.49262        29.18666        -0.91076
C          7.28630        29.89485        -0.69331
C          8.42127        32.10730        -1.08071
C          7.25375        31.33505        -0.62292
C          8.44676        33.58199        -0.78837
C          7.40256        34.16340         0.07280
C          8.74760        36.24996         0.30950
C          7.53123        35.50478         0.52623
C          8.84433        37.61574         0.78058
C          7.74652        38.19540         1.45411
C         11.03943         3.75200         1.25501
C          9.81411         4.19894         0.67182
C         11.03759         6.24023        -0.10509
C          9.82260         5.52364         0.03152
C         11.10057         7.65614        -0.31793
C          9.84788         8.42900        -0.18922
C         11.07121        10.56990        -0.42784
C          9.83092         9.87139        -0.50304
C         11.02434        11.97793        -0.39299
C          9.79549        12.70870        -0.46388
C         11.03944        14.85939        -0.38223
C          9.80771        14.12745        -0.39621
C         11.01670        16.32695        -0.41379
C          9.79018        17.03638        -0.54230
C         11.00055        19.19517        -0.42242
C          9.78635        18.46571        -0.59869
C         11.02500        20.62884        -0.56204
C          9.78235        21.33403        -0.76971
C         10.99997        23.49560        -0.94975
C          9.74763        22.74592        -0.81820
C         10.99209        24.94770        -0.76855
C          9.75589        25.64431        -0.77142
C         11.00411        27.76822        -0.89124
C          9.75537        27.06234        -0.82666
C         11.02054        29.20608        -1.03978
C          9.73218        29.85062        -1.48786
C         10.99394        32.11828        -1.22948
C          9.71412        31.38344        -1.41304
C         11.01131        33.54841        -1.12229
C          9.76737        34.31976        -0.91250
C         11.09724        36.35849        -0.41013
C          9.87016        35.65018        -0.27861
C         11.16852        37.75510        -0.02627
C         10.03315        38.34679         0.56496
C         13.48028         3.83393         1.42362
C         12.26681         4.33295         0.94123
C         13.58501         6.16096        -0.26529
C         12.28145         5.37308        -0.14944
C         13.56266         7.62495        -0.59994
C         12.29151         8.37911        -0.53182
C         13.55779        10.53612        -0.51648
C         12.33212         9.82771        -0.47883
C         13.58098        11.91775        -0.01206
C         12.24626        12.70272        -0.03953
C         13.52634        14.83785        -0.37899
C         12.24130        14.16020        -0.20742
C         13.50948        16.38126        -0.37538
C         12.21209        17.07004        -0.24183
C         13.40094        19.23826         0.21329
C         12.19202        18.48180        -0.15950
C         13.44653        20.68535        -0.00755
C         12.25448        21.32393        -0.43572
C         13.50594        23.53369        -0.34018
C         12.32838        22.75107        -0.76089
C         13.45230        24.91479        -0.40392
C         12.22256        25.63848        -0.68120
C         13.51791        27.75225        -1.06981
C         12.21386        27.05525        -0.78725
C         13.48260        29.25144        -0.89545
C         12.20923        29.94526        -1.00097
C         13.43925        32.13452        -0.88285
C         12.17883        31.39020        -1.05226
C         13.48377        33.57792        -1.20280
C         12.22734        34.27755        -1.12989
C         13.42897        36.47610        -1.22619
C         12.22239        35.69922        -0.94076
C         13.52158        37.87689        -0.76547
C         12.37192        38.47617        -0.20768
C         15.90139         3.82691         1.61951
C         14.73304         4.42041         1.11393
C         16.03597         6.35751         0.27772
C         14.82955         5.64503         0.35022
C         16.12209         7.71844        -0.25567
C         14.86681         8.37190        -0.69486
C         16.17287        10.63016        -1.09788
C         14.83050         9.86862        -0.92238
C         16.03724        12.08332        -0.68194
C         14.91158        12.66685         0.14006
C         15.97168        14.92933        -0.24086
C         14.79814        14.16715        -0.14059
C         15.95936        16.37984        -0.18783
C         14.77366        17.07089        -0.10504
C         15.96560        19.30473         0.10802
C         14.75930        18.50535         0.22899
C         15.91203        20.69183         0.35938
C         14.66137        21.39783         0.19064
C         15.90502        23.53374         0.34285
C         14.70281        22.83223         0.08907
C         15.93134        24.98271         0.22386
C         14.64593        25.68613         0.00441
C         15.97317        27.84771        -0.39556
C         14.67237        27.15352        -0.29664
C         15.96699        29.20326        -0.71226
C         14.69646        29.90401        -0.84768
C         15.97184        32.04231        -1.35564
C         14.72712        31.38354        -0.80164
C         15.97497        33.55106        -1.18708
C         14.70939        34.23976        -1.26489
C         16.00414        36.42452        -1.22554
C         14.74547        35.70223        -1.43640
C         15.98103        37.85318        -1.09879
C         14.75009        38.54170        -0.85896
C         18.32771         3.81731         1.95028
C         17.14779         4.44874         1.45588
C         18.46508         6.39718         0.78578
C         17.22605         5.74091         0.83316
C         18.61963         7.70286         0.03818
C         17.31405         8.46892        -0.18030
C         18.65931        10.52733        -0.31543
C         17.40035         9.86669        -0.49544
C         18.93059        11.87307        -0.72183
C         17.06730        12.93036        -0.99387
C         18.49762        14.86350        -0.13372
C         17.20367        14.25117        -0.47646
C         18.50157        16.38361         0.02434
C         17.24083        17.11871        -0.30529
C         18.49657        19.36745         0.11032
C         17.23209        18.63818        -0.24572
C         18.32142        20.61397         0.90480
C         17.10952        21.40897         0.70970
C         18.23592        23.63003         1.16114
C         17.09597        22.82794         0.76622
C         18.41623        24.98601         0.50733
C         17.10240        25.71814         0.31293
C         18.37504        27.84298         0.10452
C         17.16644        27.14270         0.01524
C         18.51381        29.21265        -0.52502
C         17.20331        29.97347        -0.66144
C         18.41193        32.14995        -0.60939
C         17.20361        31.32739        -0.84691
C         18.45132        33.51493        -1.22728
C         17.16601        34.25901        -1.20971
C         18.46202        36.41298        -1.16696
C         17.21014        35.70691        -1.19139
C         18.43957        37.84608        -1.11859
C         17.20919        38.53803        -1.05620
C         19.53563         4.46299         1.88490
C         20.84784         6.49182         1.41573
C         19.61790         5.77270         1.33213
C         20.87961         7.84269         1.14075
C         19.75785         8.51857         0.60120
C         20.82401        10.73062         0.89691
C         19.75456         9.91170         0.40645
C         20.86532        12.08932         0.69299
C         19.89098        12.70670        -0.14487
C         20.95659        14.94187        -0.19488
C         19.81677        14.17707        -0.25077
C         20.94884        16.37516        -0.09597
C         19.79392        17.10258        -0.01602
C         20.76860        19.06843         1.23004
C         19.78947        18.57883         0.24222
C         20.52973        20.19096         1.95846
C         19.31721        20.94677         1.79547
C         20.24008        24.03860         2.55224
C         19.19692        23.21692         2.08892
C         20.33897        25.36083         2.10377
C         19.45650        25.86659         1.15733
C         20.66418        28.01627         0.97759
C         19.53045        27.24163         0.72624
C         20.69001        29.40846         0.69210
C         19.65480        30.03009         0.04951
C         20.94547        32.24029        -0.37156
C         19.67259        31.50466        -0.15720
C         20.97312        33.51357        -0.80216
C         19.75478        34.24789        -1.24635
C         20.89822        36.48149        -1.19520
C         19.72050        35.73841        -1.20716
C         20.87201        37.89168        -1.14670
C         19.67008        38.56525        -1.10580
O         14.00388        18.78976         1.46846
O         14.34295        26.70141         1.04976
O         12.80774        12.14277         1.21966
O          8.76076        34.34753        -1.98987
O         19.52716        19.43706        -0.92351
O         14.15894        31.90612         0.42763
O         18.36360        15.53607         1.19996
O          2.79530         5.48860        -1.24685
O          2.95039        10.37807         0.90978
O          9.10861         8.20444         1.09542
O          3.94135        29.81675        -1.53272
O          7.72214        14.47477         0.85955
O          5.20027        16.69779         0.43101
O         17.28338        17.93183        -1.52548
O          6.77563        18.74533        -2.43405
O          7.37083         4.24959        -0.83557
O          8.83552        31.87601        -2.47502
O          7.46436         8.89554        -2.02568
O         13.96885        36.22625        -2.56173
O         13.68012         6.59294        -1.66621
O          1.14349        30.02858        -0.40741
O         19.09600        21.96956         2.73267
O         11.82727        23.07377        -2.09508
O         14.77135         8.94924        -2.06079
O          1.27394        27.49437        -1.07105
O         18.78622        32.19774         0.82405
O         13.55795        15.62811        -1.63338
O         19.19178        33.64195        -2.48688
O         18.15449        12.44237        -1.73128
O          1.34147        15.50594        -3.15491
O          9.67976        29.51491        -2.91517
H          9.09872        30.19512        -3.33335
O         18.89925        28.94295        -1.92885
H         19.57843        28.23459        -1.91811
O         19.05069         7.32846        -1.32318
H         18.32460         6.80512        -1.72554
O         18.93280        24.71938        -0.85436
H         18.30154        24.10886        -1.29252
O         15.90821        31.79855        -2.79410
H         16.72390        32.15831        -3.20381
O         16.45443        10.67924        -2.51559
H         16.13587         9.82922        -2.90213
O         13.81668        27.49451        -2.47895
H         13.09684        27.88510        -3.01876
O          2.09343        13.05981         0.65502
H          2.27040        12.23190         1.16550
O         12.17089         4.58275        -1.37225
H         12.50369         5.15705        -2.10148
O         15.31542        12.50526         1.53548
H         14.49059        12.56647         2.07215
H          1.33836         2.69541         1.99021
H         -0.78177         3.98019         2.02321
H         -0.91408         6.26715         1.09920
H         -1.04925         7.82305        -0.28239
H         -1.07186        10.14933        -0.97597
H         -0.92845        11.80479        -1.93584
H         -0.75077        14.02619        -2.99647
H         -0.83677        16.95135        -2.90722
H         -0.98731        19.16735        -1.78510
H         -1.03560        20.76430        -0.57275
H         -1.02084        23.13705         0.01633
H         -0.82329        24.86352         1.01403
H         -0.81075        27.24526         1.50111
H         -0.42906        29.00165         2.35045
H         -0.09810        31.24557         3.19552
H         -0.16347        33.14868         3.45992
H          0.06061        35.46309         4.24663
H          1.33876        37.57817         4.39502
H          3.73379         2.61251         1.51191
H          3.36301        38.90577         3.85393
H          6.00388         2.80639         1.87489
H          5.58757        39.07154         2.80270
H          8.76287         2.71056         1.81480
H          7.82084        39.23529         1.80571
H         11.01309         2.89138         1.94125
H         10.07959        39.39871         0.88369
H         13.47048         2.95837         2.09073
H         12.42325        39.52253         0.12867
H         15.83453         2.87198         2.16043
H         14.79685        39.61120        -0.60402
H         18.24661         2.81557         2.39540
H         17.21506        39.63426        -0.96450
H         20.44730         3.99314         2.28057
H         21.73718         5.98511         1.81607
H         21.80313         8.39790         1.35194
H         21.61534        10.27065         1.50199
H         21.65310        12.69700         1.15898
H         21.93620        14.44469        -0.23415
H         21.92018        16.89030        -0.08319
H         21.64672        18.44592         1.45489
H         21.23913        20.51402         2.73248
H         20.91649        23.65912         3.32805
H         21.10191        26.01107         2.55318
H         21.54854        27.56871         1.44905
H         21.55921        29.99128         1.03048
H         21.88882        31.72946        -0.12690
H         21.94485        34.02070        -0.89730
H         21.87235        35.97575        -1.23728
H         21.81972        38.44753        -1.14398
H         19.64572        39.66372        -1.06891
