         424
 CSIRO Nanostructure Databank - Neutral Graphene Oxide Data Set
C          1.74602         2.47238        -3.18108
C          1.67777         3.83039        -2.85973
C          2.92062         1.75321        -2.99392
C          2.79993         4.51606        -2.33088
C          1.52129         6.65786        -2.08128
C          1.48399         7.99566        -1.90480
C          2.75910         5.91383        -1.99763
C          2.74335         8.80094        -1.73450
C          1.53134        10.98829        -1.64821
C          1.56967        12.32274        -1.46306
C          2.47572        10.06810        -0.92301
C          2.57795        12.95106        -0.62815
C          1.46579        15.17362        -0.92492
C          1.44200        16.54805        -0.83511
C          2.53956        14.38034        -0.38255
C          2.46654        17.25313        -0.16320
C          2.50860        18.66458        -0.11904
C          4.07714         2.39439        -2.47466
C          4.01629         3.78996        -2.14270
C          5.27934         1.67969        -2.28481
C          5.16962         4.44287        -1.61875
C          3.91879         6.57383        -1.50502
C          3.89134         7.97710        -1.18867
C          5.11939         5.83361        -1.28289
C          4.96446         8.60097        -0.55036
C          3.74056        10.77574        -0.49364
C          3.65788        12.16743        -0.18642
C          4.89359        10.02509        -0.19298
C          4.72099        12.76661         0.64749
C          3.55066        15.01701         0.35139
C          3.49153        16.47189         0.54427
C          4.63859        14.25416         0.99692
C          4.71847        17.22074         1.06638
C          3.64090        19.34415         0.29986
C          4.82180        18.64624         0.69280
C          6.43461         2.31280        -1.77557
C          6.37611         3.71155        -1.43592
C          7.64347         1.60224        -1.60403
C          7.53380         4.36552        -0.93090
C          6.26687         6.48859        -0.74541
C          6.18978         7.86220        -0.32979
C          7.47855         5.75828        -0.58528
C          7.32588         8.48553         0.23791
C          6.02278        10.66542         0.40297
C          6.00625        12.03406         0.73161
C          7.12363         9.79905         0.97715
C          7.20987        12.73300         1.04613
C          5.90740        14.95651         1.45107
C          5.98355        16.50632         1.55659
C          7.20570        14.18683         1.35716
C          7.26547        17.09783         1.00898
C          6.06808        19.24965         0.62762
C          7.28827        18.50102         0.73679
C          8.80695         2.23823        -1.11180
C          8.74093         3.63631        -0.76800
C         10.01736         1.52850        -0.95008
C          9.91842         4.30099        -0.30886
C          8.64492         6.41796        -0.09714
C          8.55898         7.78969         0.31767
C          9.87559         5.71000         0.00349
C          9.75529         8.42418         0.80394
C          8.41887        10.57281         1.24201
C          8.43762        12.05092         1.11835
C          9.72373         9.84717         1.21948
C          9.67843        12.75190         1.12654
C          8.48049        14.92429         1.17654
C          8.46910        16.35866         1.01441
C          9.67965        14.19541         1.07529
C          9.71143        17.04523         0.79314
C          8.50395        19.15603         0.48777
C          9.72939        18.45377         0.53180
C         11.19269         2.16366        -0.46100
C         11.11958         3.58174        -0.19272
C         12.37112         1.44316        -0.19831
C         12.35750         4.31816         0.05986
C         11.05556         6.38393         0.44849
C         10.96926         7.75938         0.83985
C         12.30183         5.71364         0.48787
C         12.17329         8.45527         1.44080
C         10.98234        10.62058         1.10511
C         10.92658        12.04307         1.08553
C         12.20179         9.93629         1.12407
C         12.16227        12.75816         1.04488
C         10.94219        14.89084         0.98348
C         10.94711        16.33970         0.83899
C         12.14286        14.18389         1.01637
C         12.15178        17.03460         0.64968
C         10.95618        19.12003         0.28457
C         12.17237        18.42423         0.33054
C         13.49300         2.06044         0.58426
C         13.62608         3.54091         0.29545
C         14.82288         1.38982         0.42415
C         14.78646         4.25046         0.87383
C         13.50079         6.36800         0.92272
C         13.47980         7.75469         1.18357
C         14.72458         5.62748         1.08548
C         14.71226         8.48565         1.29459
C         13.43278        10.64284         1.05085
C         13.40414        12.06010         0.98589
C         14.70159         9.93969         1.12946
C         14.64594        12.79791         0.82522
C         13.43145        14.93312         1.24751
C         13.44724        16.27995         0.53363
C         14.67851        14.16764         0.87377
C         14.67370        17.11555         0.94307
C         13.42662        19.06365         0.01076
C         14.65537        18.44507         0.21011
C         16.00844         2.07875         0.72322
C         15.98593         3.49778         1.02956
C         17.26174         1.40330         0.74365
C         17.21105         4.19124         1.28871
C         15.90625         6.32766         1.70712
C         15.91242         7.80793         1.43233
C         17.20638         5.61958         1.41141
C         17.19052         8.56089         1.68192
C         15.90168        10.61749         0.94752
C         15.85889        12.01890         0.38458
C         17.17167         9.96465         1.09297
C         17.14703        12.78625         0.52972
C         15.91226        14.93036         0.68172
C         15.92904        16.30471         0.68997
C         17.15989        14.17909         0.51600
C         17.21995        17.08345         0.74400
C         15.88131        19.06752        -0.11500
C         17.12969        18.44455         0.07421
C         18.46253         2.07194         1.07586
C         18.43036         3.48117         1.31047
C         19.70688         1.38349         1.18774
C         19.66187         4.20060         1.78846
C         18.41539         6.34728         1.31108
C         18.40385         7.75560         1.28467
C         19.69095         5.63795         1.33951
C         19.67079         8.45938         1.19205
C         18.35336        10.63662         0.80133
C         18.37197        12.05038         0.45679
C         19.65796         9.96305         0.95132
C         19.56821        12.71376         0.14801
C         18.39323        14.88239         0.31011
C         18.42349        16.29815         0.28111
C         19.58720        14.13924         0.01685
C         19.59552        16.98198        -0.06711
C         18.32276        19.10131        -0.23181
C         19.58234        18.42664        -0.20293
C         20.92105         2.07766         1.40634
C         20.94329         3.45969         1.52357
C         22.20161         1.30550         1.62659
C         22.23754         4.20451         1.74077
C         20.89877         6.28422         1.13657
C         20.83830         7.69949         0.60701
C         22.16551         5.62993         1.23518
C         22.13042         8.46108         0.68410
C         20.86658        10.56250         0.39178
C         20.78165        11.90896        -0.26010
C         22.08939         9.88223         0.43774
C         22.07670        12.66929        -0.16572
C         20.77109        14.83545        -0.34328
C         20.80577        16.25805        -0.36574
C         22.00897        14.07040        -0.61142
C         22.00953        16.97973        -0.59865
C         20.78273        19.10586        -0.40682
C         22.01878        18.40448        -0.53751
C         23.44349         2.04891         1.19461
C         23.43777         3.46341         1.19458
C         24.61485         1.34908         0.91677
C         24.61239         4.17444         0.87054
C         23.35079         6.31950         0.91725
C         23.32793         7.75901         0.69189
C         24.59603         5.61863         0.79981
C         24.57682         8.47294         0.55156
C         23.32733        10.58765         0.21893
C         23.29140        12.00986        -0.07450
C         24.55149         9.91045         0.34458
C         24.53976        12.73803        -0.22133
C         23.29106        14.79945        -0.90145
C         23.27182        16.31389        -1.10738
C         24.55232        14.12327        -0.52348
C         24.53108        17.01238        -0.65443
C         23.24495        19.11233        -0.60941
C         24.50227        18.44290        -0.58528
C         25.83684         2.03542         0.65920
C         25.82431         3.46627         0.62266
C         27.05585         1.34228         0.47347
C         27.03273         4.17587         0.33151
C         25.79618         6.32809         0.53784
C         25.77456         7.76484         0.52873
C         27.01973         5.62200         0.28097
C         27.09261         8.48527         0.62092
C         25.78471        10.63479         0.21617
C         25.77000        12.04812        -0.03771
C         27.02285         9.95875         0.29886
C         26.99586        12.76874        -0.10019
C         25.75347        14.86554        -0.45383
C         25.73997        16.31516        -0.52231
C         26.98948        14.18573        -0.24612
C         26.96953        17.03590        -0.38685
C         25.71630        19.15186        -0.46300
C         26.95769        18.47338        -0.39574
C         28.25844         2.03784         0.21927
C         28.22229         3.46623         0.10574
C         29.50938         1.35938         0.12296
C         29.43479         4.17220        -0.43429
C         28.22635         6.32114         0.00733
C         28.16013         7.80898        -0.23108
C         29.44282         5.65327        -0.17917
C         29.48382         8.51538        -0.07893
C         28.23416        10.64771         0.16142
C         28.24052        12.08070         0.04403
C         29.48543         9.92145         0.06896
C         29.44737        12.80192         0.07854
C         28.21975        14.90962        -0.20894
C         28.20896        16.34113        -0.27813
C         29.45272        14.21268        -0.05593
C         29.43550        17.05831        -0.22885
C         28.18518        19.17609        -0.32994
C         29.42386        18.49796        -0.27098
C         30.73952         2.06484         0.03082
C         30.73453         3.48502        -0.12161
C         31.99041         1.39417         0.11392
C         31.93718         4.21090        -0.16349
C         30.68120         6.35989        -0.24553
C         30.68955         7.79837        -0.17492
C         31.91910         5.65406        -0.26254
C         31.93510         8.50777        -0.21707
C         30.70809        10.63204         0.06046
C         30.71301        12.08536         0.45765
C         31.92679         9.95153        -0.11213
C         31.96704        12.82253         0.07206
C         30.69405        14.93733        -0.06094
C         30.68038        16.35704        -0.16070
C         31.94291        14.22979        -0.03764
C         31.91132        17.07946        -0.20351
C         30.65371        19.19899        -0.25588
C         31.89392        18.51881        -0.24515
C         33.19805         2.10099         0.05389
C         33.18886         3.52626        -0.07513
C         34.46651         1.42665         0.15537
C         34.41987         4.24946        -0.13922
C         33.14976         6.36851        -0.30797
C         33.13688         7.78696        -0.33581
C         34.40799         5.66061        -0.27468
C         34.39977         8.54730        -0.62692
C         33.15238        10.68418        -0.05112
C         33.18693        12.10246         0.00935
C         34.39964         9.92442        -0.00582
C         34.43986        12.81895        -0.12332
C         33.17587        14.94965        -0.17178
C         33.15513        16.38167        -0.23173
C         34.41094        14.25181        -0.21976
C         34.37842        17.09894        -0.32631
C         33.12164        19.22096        -0.27976
C         34.35988        18.54141        -0.33093
C         35.65877         2.10244         0.08279
C         35.67362         3.53864        -0.10062
C         36.94450         1.34888         0.35464
C         36.88340         4.24242        -0.23538
C         35.65034         6.38473        -0.29854
C         35.67230         7.79342        -0.36324
C         36.89576         5.67192        -0.25727
C         36.89534         8.50705        -0.38704
C         35.70751        10.67881        -0.04802
C         35.66960        12.13578        -0.20868
C         36.92298         9.93768        -0.40299
C         36.89385        12.81653        -0.48229
C         35.63699        14.97021        -0.37727
C         35.61957        16.39933        -0.42457
C         36.87291        14.26726        -0.51866
C         36.84176        17.11896        -0.58417
C         35.58228        19.24387        -0.38435
C         36.82598        18.57411        -0.52913
C         38.17648         2.02291        -0.22535
C         38.13816         3.49676        -0.50165
C         39.48874         1.39464         0.03769
C         39.43652         4.27922        -0.68806
C         38.12099         6.39101        -0.26962
C         38.13626         7.79150        -0.35999
C         39.39063         5.63360         0.02365
C         39.37731         8.52804        -0.46882
C         38.12208        10.64347        -0.60824
C         38.10444        12.09583        -0.65476
C         39.34750         9.91830        -0.69993
C         39.34935        12.79330        -0.83227
C         38.06628        14.99406        -0.68997
C         38.05285        16.40398        -0.72492
C         39.35949        14.29775        -1.04496
C         39.32748        17.12074        -0.95997
C         38.01934        19.30176        -0.55156
C         39.29952        18.67483        -0.85787
C         40.64695         2.11166         0.00120
C         40.68002         3.52643        -0.23351
C         41.84719         4.26107        -0.09463
C         40.67034         6.41748        -0.21528
C         40.63302         7.83060        -0.35031
C         41.85686         5.67516        -0.19354
C         41.83567         8.63453        -0.28511
C         40.60987        10.62467        -1.13419
C         40.55233        12.12735        -0.96821
C         41.82941         9.96411        -0.54566
C         41.77823        12.89704        -1.08993
C         40.57358        14.95443        -0.37574
C         40.60516        16.45109        -0.65729
C         41.82486        14.22004        -0.81399
C         41.74083        17.19699        -0.50137
C         40.55834        19.33989        -0.51321
C         41.71913        18.63494        -0.44251
O          4.19399        13.23864         1.94513
O         22.55415        14.15783        -2.01374
O         35.14148        10.13209         1.22664
O         13.34679         3.99580        -1.04497
O          3.61658        16.91509         1.96649
O          9.03935        10.10858         2.51108
O         37.97055         2.50710        -1.59760
O         39.32742        17.95785        -2.14462
O         19.91449         9.37363         2.30951
O          6.49175        14.38862         2.65051
O          6.04479        16.82692         2.96884
H          5.18271        16.55942         3.35818
O         15.74710         6.22756         3.17511
H         16.31921         6.93057         3.56642
O         37.11405         1.21345         1.77963
H         37.06052         2.10370         2.18437
O         40.42349        14.78913         1.06054
H         41.22824        15.14190         1.49369
O         13.60749        15.96954        -0.88064
H         13.55437        16.81394        -1.37728
O         22.29762         1.10646         3.06002
H         23.15759         0.67423         3.24444
O         20.60919        11.66007        -1.71156
H         20.97969        12.43386        -2.19103
O         27.53472         8.36049         2.00461
H         26.86671         8.79070         2.57816
O         17.42981        17.35387         2.17224
H         16.55245        17.64856         2.52598
O         15.69536        11.82450        -1.07027
H         15.64025        12.71473        -1.47910
O         20.51076         7.58845        -0.82052
H         21.28207         7.19171        -1.27754
O         34.38170         8.81892        -2.07702
H         34.33777         7.95558        -2.54040
O         13.47357        15.15660         2.69683
H         13.44145        14.28039         3.13628
O         29.30047         4.06126        -1.92070
H         29.28858         3.10170        -2.12887
O         17.30838         8.71177         3.14963
H         18.22479         9.05075         3.31022
O         23.25519        16.54574        -2.55718
H         22.77474        15.77695        -2.94771
O          6.58660         9.39566         2.27378
H          7.34483         9.39557         2.90521
O         39.57916         4.53870        -2.10237
H         39.26280         3.72955        -2.56555
O         11.99187         8.37923         2.90027
H         11.14854         8.83419         3.11691
O         19.52652         4.24902         3.26208
H         19.60874         3.32840         3.59114
O         22.44923         4.26482         3.19493
H         22.41280         3.33561         3.51803
O         27.74682         7.97382        -1.62090
H         28.35222         7.44209        -2.17970
O          3.16062         9.24464        -3.06501
H          3.31148         8.44385        -3.61006
O          1.81408         9.63019         0.30257
H          1.73791        10.40631         0.89707
O         13.11902         1.99909         2.02045
H         13.12463         1.05587         2.28766
O         39.34505         5.32713         1.45330
H         39.36227         6.17642         1.94256
O         14.65332        17.47627         2.35157
H         14.33418        16.68715         2.85644
O         40.70839        10.41584        -2.59619
H         40.75703         9.44711        -2.74522
O         30.71928        12.07688         1.94348
H         31.53294        11.60553         2.22515
O         39.54445        14.50451        -2.47404
H         38.83564        14.02329        -2.94891
H          0.85726         1.97003        -3.58835
H          0.73298         4.36242        -3.03108
H          2.96610         0.68472        -3.24796
H          0.58232         6.11519        -2.25804
H          0.52124         8.52408        -1.95153
H          0.75645        10.55154        -2.29410
H          0.82989        12.94606        -1.98181
H          0.63550        14.67997        -1.44313
H          0.61928        17.11322        -1.29657
H          1.66060        19.22918        -0.53350
H          5.31890         0.61119        -2.54341
H          3.68985        20.43748         0.19269
H          7.68288         0.53533        -1.86911
H          6.13496        20.31599         0.36453
H         10.04556         0.45501        -1.18822
H          8.50376        20.23412         0.27103
H         12.38075         0.35637        -0.37461
H         10.94662        20.19524         0.05418
H         14.86891         0.32895         0.13373
H         13.39750        20.08280        -0.40500
H         17.28987         0.32434         0.53051
H         15.85846        20.07545        -0.56019
H         19.72513         0.28950         1.07673
H         18.29462        20.15038        -0.56544
H         22.15300         0.29890         1.12229
H         20.78330        20.20392        -0.47446
H         24.60969         0.24802         0.92797
H         23.22733        20.21177        -0.57167
H         27.06979         0.24457         0.54503
H         25.70035        20.25142        -0.43365
H         29.52964         0.26476         0.22958
H         28.17501        20.27617        -0.34545
H         32.00716         0.30011         0.22849
H         30.64546        20.29878        -0.28362
H         34.46816         0.33817         0.31854
H         33.11194        20.32086        -0.29387
H         36.86671         0.30863        -0.05286
H         35.57154        20.34358        -0.35532
H         39.50327         0.33188         0.31955
H         37.99886        20.37891        -0.32557
H         41.59852         1.61226         0.24293
H         42.79744         3.73712         0.09250
H         42.83010         6.18516        -0.23296
H         42.76983         8.15816         0.04677
H         42.76082        10.53992        -0.44653
H         42.69951        12.37365        -1.38495
H         42.78557        14.75420        -0.85766
H         42.70115        16.70156        -0.29395
H         40.54108        20.41698        -0.29016
H         42.66165        19.15392        -0.21684
