         429
 CSIRO Nanostructure Databank - Neutral Graphene Oxide Data Set
C          1.45874         3.44795         0.05073
C          0.22585         4.03827        -0.23113
C          1.29327         6.21045        -0.47269
C          0.14313         5.40700        -0.49056
C          1.17272         7.69339        -0.82801
C          0.02687         8.37367        -0.13079
C          1.22408        10.51588        -0.06938
C          0.05652         9.69195         0.16695
C          1.19887        11.92030         0.03674
C         -0.02843        12.65020         0.26690
C          1.07669        14.84273         0.20415
C         -0.09091        14.01522         0.33526
C          1.07465        16.22054         0.42569
C         -0.12792        16.97540         0.62827
C          1.10342        19.10055         0.92474
C         -0.11507        18.32154         0.87690
C          1.06737        20.52704         1.15098
C         -0.11463        21.22934         1.51042
C          1.11292        23.32809         1.72666
C         -0.07672        22.56866         1.85895
C          1.19382        24.75531         2.24664
C          0.08380        25.69455         1.75445
C          1.22577        27.89392         1.15325
C          0.09133        27.01347         1.41094
C          1.09459        29.14957         0.29665
C         -0.01157        30.07520         0.77295
C          1.07239        32.04498        -0.27336
C         -0.04190        31.37989         0.44824
C          1.11710        33.53501        -0.37814
C         -0.00943        34.26932        -0.64782
C          1.25764        36.37096        -0.83231
C          0.03945        35.68248        -0.82444
C          1.32623        37.78289        -1.10762
C          3.94870         3.56241         0.40500
C          2.62732         4.21982         0.04957
C          3.78320         6.41372        -0.26738
C          2.54113         5.60167        -0.22425
C          3.71618         7.74518        -0.99806
C          2.45468         8.47473        -0.65225
C          3.68841        10.60984        -0.50744
C          2.45882         9.84132        -0.41215
C          3.64071        12.02850        -0.40350
C          2.40119        12.67047        -0.16909
C          3.61873        14.91056        -0.29363
C          2.31365        14.13585        -0.22216
C          3.59622        16.38305         0.02557
C          2.37763        16.93462         0.74239
C          3.56404        19.17989         0.82046
C          2.33264        18.44944         0.74187
C          3.53187        20.57583         0.98023
C          2.28840        21.26363         1.09756
C          3.47482        23.45424         0.88676
C          2.26474        22.68588         1.27356
C          3.53749        24.90024         1.19179
C          2.54796        25.35823         1.99111
C          3.70489        27.97282         0.90987
C          2.48768        27.53121         1.53992
C          3.62955        29.28663         0.33055
C          2.41820        29.90858         0.18681
C          3.63967        32.07336        -0.37411
C          2.37295        31.29109        -0.35018
C          3.66642        33.43617        -0.39457
C          2.42025        34.24186        -0.09278
C          3.71048        36.31447        -0.67406
C          2.48051        35.65994        -0.59731
C          3.76420        37.73112        -0.94750
C          2.52592        38.43524        -1.14879
C          6.27167         3.58500        -0.57934
C          5.15504         4.25355        -0.19064
C          6.27885         6.43449        -0.84909
C          5.11801         5.72301        -0.27617
C          6.20961         7.87068        -0.94301
C          4.97934         8.54177        -0.81891
C          6.16874        10.70259        -0.76547
C          4.93525         9.95322        -0.71606
C          6.15203        12.09450        -0.57479
C          4.88811        12.78024        -0.43190
C          6.13170        14.85367         0.07375
C          4.87335        14.16125        -0.25069
C          6.12802        16.30233         0.42494
C          4.87493        17.10515         0.26209
C          6.05364        19.21892         0.78017
C          4.85179        18.50918         0.73941
C          6.07971        20.62249         0.98540
C          4.79717        21.32382         1.33422
C          6.04841        23.52585         0.97650
C          4.78860        22.74801         0.83151
C          6.05384        24.93469         0.92062
C          4.74787        25.65550         0.62129
C          6.09404        27.78986         0.42084
C          4.83479        27.16704         0.78450
C          6.13224        29.14764         0.04718
C          4.84865        29.84347        -0.35372
C          6.13479        31.97446        -0.74274
C          4.92813        31.33801        -0.06863
C          6.15949        33.45838        -0.46902
C          4.94143        34.16156        -0.43056
C          6.19145        36.26962        -0.61602
C          4.95338        35.58276        -0.52981
C          6.22538        37.70506        -0.84822
C          4.99245        38.39138        -1.01420
C          8.63616         3.60419        -1.28918
C          7.47378         4.28365        -1.00672
C          8.65584         6.42847        -1.49453
C          7.45288         5.73146        -1.11547
C          8.58287         7.89420        -1.67738
C          7.39873         8.62539        -1.19512
C          8.64035        10.77278        -1.20209
C          7.40035        10.01993        -1.07362
C          8.63744        12.19231        -0.97019
C          7.39255        12.85513        -0.63476
C          8.56093        15.07577        -0.73364
C          7.38996        14.21316        -0.33667
C          8.63802        16.43442        -0.09514
C          7.42358        17.05128         0.45382
C          8.54503        19.34321         0.14202
C          7.37056        18.53105         0.64656
C          8.56529        20.70522         0.80951
C          7.28126        21.36253         1.02906
C          8.47296        23.53911         1.40948
C          7.24178        22.79098         1.13727
C          8.52547        24.97629         1.09008
C          7.29095        25.65667         0.87867
C          8.57433        27.73462         0.45440
C          7.32041        27.06212         0.58639
C          8.59681        29.12833         0.11819
C          7.36770        29.83149        -0.09596
C          8.61282        31.91566        -0.48724
C          7.40567        31.23604        -0.39542
C          8.63405        33.37408        -0.56724
C          7.39686        34.13749        -0.46347
C          8.68209        36.28060        -0.48961
C          7.40508        35.54984        -0.50764
C          8.69733        37.70868        -0.87558
C          7.45396        38.37575        -0.98924
C         11.02282         3.58051        -1.78664
C          9.86720         4.29470        -1.59289
C         11.12380         6.46115        -1.82467
C          9.85662         5.75236        -1.66939
C         11.15266         7.92648        -1.80166
C          9.87226         8.67895        -1.87091
C         11.08220        10.86552        -1.59618
C          9.83605        10.11152        -1.52037
C         11.12559        12.26240        -1.14552
C          9.85851        12.94334        -0.96246
C         11.07855        15.07952        -0.63865
C          9.86971        14.33552        -0.71620
C         11.07154        16.45172        -0.36004
C          9.83476        17.13706        -0.06629
C         11.03936        19.25221         0.36410
C          9.85122        18.56802         0.23053
C         11.03326        20.76296         0.44488
C          9.75053        21.36085         0.97619
C         11.02829        23.53892         1.31498
C          9.78141        22.76013         1.44666
C         11.01450        24.89613         1.11279
C          9.76841        25.63678         0.95078
C         11.06618        27.70846         0.42417
C          9.80654        27.03301         0.64138
C         11.07417        29.08045         0.00302
C          9.83786        29.79381        -0.08990
C         11.06903        31.82646        -0.74541
C          9.85727        31.18560        -0.42243
C         11.01199        33.23821        -1.17324
C          9.83281        34.01972        -0.76272
C         11.18472        36.15112        -1.13150
C          9.95880        35.47525        -0.64777
C         11.16230        37.61354        -1.17648
C          9.92935        38.32877        -1.09361
C         13.36344         3.62320        -0.98967
C         12.35905         4.22763        -1.95150
C         13.61925         6.39375        -1.85446
C         12.30472         5.73715        -1.83857
C         13.63052         7.90916        -1.68167
C         12.33714         8.61012        -1.65571
C         13.61141        10.76566        -1.15193
C         12.41166        10.08990        -1.65710
C         13.59071        12.15930        -0.90099
C         12.34452        12.89950        -0.98326
C         13.55973        14.95783        -0.19406
C         12.39454        14.40689        -0.97281
C         13.43977        16.33568         0.41291
C         12.38553        17.19583        -0.31756
C         13.51015        19.21712         0.63094
C         12.31540        18.58123         0.30060
C         13.53454        20.61421         1.02323
C         12.23985        21.29056         1.20560
C         13.54544        23.44416         1.66482
C         12.25309        22.75836         1.58214
C         13.51872        24.91470         1.76969
C         12.27388        25.68409         1.25516
C         13.48833        27.64120         0.10457
C         12.30675        27.02118         0.58321
C         13.49588        28.99149        -0.31188
C         12.30195        29.74472        -0.31580
C         13.51527        31.79520        -1.11130
C         12.31709        31.14226        -0.71481
C         13.52564        33.15751        -1.62377
C         12.25789        33.95895        -1.56641
C         13.57312        36.13126        -1.93704
C         12.31124        35.43885        -1.44733
C         13.60637        37.57742        -1.47218
C         12.37812        38.28075        -1.31982
C         15.71975         3.53654        -0.27598
C         14.58615         4.21636        -0.82734
C         15.87277         6.29836        -0.69215
C         14.86156         5.53259        -1.55578
C         15.90367         7.79880        -0.60355
C         14.80085         8.60685        -1.12557
C         15.99196        10.64322        -0.42828
C         14.79031         9.98698        -0.88756
C         15.97955        12.05721        -0.20739
C         14.76718        12.81049        -0.40817
C         15.88547        14.85683         0.59166
C         14.69883        14.20794        -0.02878
C         15.95283        16.33905         0.59435
C         14.76381        17.06461         0.48671
C         15.98521        19.12584         0.92013
C         14.76835        18.47308         0.63730
C         15.97454        20.54009         1.33893
C         14.70971        21.29995         1.28490
C         16.01724        23.44777         1.43052
C         14.74438        22.73848         1.51337
C         16.00212        24.87536         1.45872
C         14.83987        25.54623         1.83767
C         16.01512        27.62843         0.12671
C         14.74999        26.89351        -0.18667
C         16.02537        28.99882        -0.19979
C         14.78176        29.61135        -0.73245
C         16.07518        31.85323        -0.95232
C         14.80686        31.06883        -1.11073
C         16.11933        33.18141        -1.31110
C         14.89772        33.93951        -1.71216
C         16.12139        36.18423        -1.77296
C         14.84708        35.37923        -1.55354
C         16.06198        37.57329        -1.18654
C         14.79211        38.22463        -1.17473
C         18.15884         3.41293         0.20411
C         16.98334         4.14390        -0.18264
C         18.27547         6.24797        -0.01545
C         17.10097         5.56198        -0.35127
C         18.32396         7.69759        -0.00067
C         17.16617         8.46149        -0.26105
C         18.40502        10.55043         0.13091
C         17.18250         9.88817        -0.20136
C         18.40848        11.97358         0.27928
C         17.18620        12.69066         0.19411
C         18.44950        14.84224         0.66216
C         17.17649        14.09462         0.64269
C         18.44658        16.26037         0.72818
C         17.20141        17.00352         0.73967
C         18.47813        19.13254         0.93164
C         17.21539        18.41743         0.89570
C         18.51218        20.55170         1.01196
C         17.28654        21.28713         1.37917
C         18.49439        23.44041         1.15064
C         17.26633        22.76662         1.30495
C         18.56045        24.91502         1.21926
C         17.24091        25.66615         1.27312
C         18.37888        27.75796         0.66128
C         17.18731        27.00540         0.62454
C         18.32727        29.15457         0.53742
C         17.16553        29.79666         0.05013
C         18.44074        31.88895        -0.17482
C         17.24041        31.20269        -0.34496
C         18.69946        33.15738        -0.96033
C         17.41994        33.91220        -1.34723
C         18.58643        36.17177        -0.93728
C         17.41305        35.41330        -1.45560
C         18.49594        37.57727        -0.77901
C         17.21551        38.23952        -0.85758
C         19.34594         4.06161         0.42023
C         20.63936         6.17211         0.61834
C         19.44009         5.49040         0.33994
C         20.69710         7.56313         0.58945
C         19.56108         8.35149         0.30796
C         20.78514        10.50773         0.64680
C         19.59872         9.80117         0.35351
C         20.80432        11.89673         0.72180
C         19.63660        12.65914         0.55235
C         20.87754        14.83758         0.63602
C         19.65950        14.11679         0.61640
C         20.88588        16.21884         0.68992
C         19.68375        16.96315         0.73279
C         20.89753        19.14588         0.63230
C         19.69487        18.41483         0.76739
C         20.90491        20.52924         0.62837
C         19.71265        21.26427         0.82218
C         20.84481        23.45133         0.47473
C         19.70616        22.73124         0.83224
C         20.85348        24.86992         0.37146
C         19.75532        25.61052         0.71725
C         20.77825        27.88205         1.33425
C         19.74646        27.11168         0.54119
C         20.66059        29.20579         1.50869
C         19.40127        29.98370         1.19624
C         20.72165        32.05490         0.68861
C         19.57534        31.31588         0.50561
C         20.79301        33.43378         0.32143
C         19.78260        34.04706        -0.37306
C         20.91329        36.27222        -0.24090
C         19.77465        35.49950        -0.56307
C         20.85546        37.66551        -0.21145
C         19.64411        38.31682        -0.42251
O         14.87978        30.00767        -2.14277
O         13.86882         7.26997        -2.99304
O          7.68143        17.68214         1.78113
O         18.09239        25.58525         2.46265
O          4.20838        17.11147        -1.07167
O         14.72756        25.79626        -0.73878
O          4.57470         6.40179         0.94449
O          9.52616        35.97706         0.67458
O          4.04537        22.99252        -0.40398
O          1.49916        31.41632        -1.54523
O         11.32485        33.47685        -2.61502
O          2.65336        26.61783         2.59303
O         14.21939        33.36719        -2.90013
O         17.70442        34.57264        -2.64036
O         15.30155         6.91673         0.50472
O          6.07470        15.33328         1.52260
O         16.33007        14.27236         1.86324
O         12.62702        25.63721         2.70258
O          9.02042         8.33099        -3.01420
O         15.39052         5.10081        -2.77880
O          9.08094        23.09674         2.68110
O         11.82442        10.68313        -2.85748
O         12.00526        21.69554         2.57904
O          2.83501        14.65228        -1.50841
O         16.68354        20.76305         2.61759
O          8.31804        15.37326        -2.18097
H          8.27008        14.51168        -2.64987
O         16.13221        36.43647        -3.20472
H         16.42559        35.60199        -3.63900
O          3.93394         2.17501         0.06885
H          3.82054         2.09266        -0.89994
O         14.87537        26.77342         2.38120
H         13.96907        26.93170         2.75695
O          4.60009        25.56657        -0.83474
H          4.44516        24.61186        -1.05475
O         12.89546         3.93652        -3.27850
H         13.81773         4.33123        -3.31858
O         12.68205        14.77152        -2.38956
H         12.02986        14.30183        -2.95386
O          2.63815        16.56346         2.14744
H          1.88698        16.89107         2.68661
O         19.27188        32.63987        -2.20520
H         19.10652        33.32940        -2.89072
O          0.87848         7.72662        -2.26892
H          1.69781         7.40348        -2.71624
O         12.84123        17.42319        -1.67859
H         12.82426        16.55198        -2.15505
O          8.30717        19.58371        -1.27314
H          9.03676        20.15116        -1.60587
O         13.46414        36.13012        -3.38944
H         13.54659        35.19016        -3.67609
O         12.95131        16.17310         1.77375
H         13.63219        15.68913         2.28794
O         20.10915        27.30517        -0.86657
H         20.09318        28.26728        -1.05827
O          4.63367        29.59662        -1.76123
H          5.19653        30.22291        -2.27584
O          5.11354        31.44709         1.36671
H          5.06088        32.39527         1.61367
O          5.97229        31.86029        -2.19496
H          6.77672        32.22951        -2.61766
O          2.46633        34.35942         1.39177
H          1.78111        35.01295         1.65024
O          0.75486        28.74730        -1.05797
H          0.88591        29.54341        -1.62811
O          4.78604        21.45528         2.79912
H          4.95869        20.57023         3.18508
O          3.64128         7.38163        -2.43247
H          3.85722         8.18626        -2.95140
O         18.83119        30.32101         2.51024
H         18.66397        29.47877         2.98490
O          1.00395        24.66138         3.68788
H          1.28732        25.52402         4.06211
O         11.15167        21.23876        -0.93961
H         11.81902        20.68030        -1.39456
H          1.52678         2.37210         0.26500
H         -0.68499         3.42366        -0.24541
H         -0.83317         5.85482        -0.72175
H         -0.88318         7.79236         0.07774
H         -0.83018        10.15096         0.62757
H         -0.96024        12.08329         0.39663
H         -1.06127        14.48647         0.54558
H         -1.09903        16.47049         0.52719
H         -1.07720        18.83850         0.99083
H         -1.07125        20.69413         1.58199
H         -0.99039        23.05998         2.22117
H         -0.91376        25.22615         1.80495
H         -0.89254        27.43886         1.14905
H         -0.85348        29.64103         1.33395
H         -0.87812        32.01216         0.78620
H         -0.97683        33.75975        -0.76976
H         -0.89257        36.22914        -1.02515
H          0.38832        38.33048        -1.28057
H          4.05702         3.61670         1.52511
H          2.56350        39.51537        -1.35264
H          6.29865         2.48639        -0.51858
H          5.01120        39.47240        -1.21982
H          8.65793         2.50583        -1.22812
H          7.44788        39.44940        -1.23158
H         10.98853         2.48044        -1.75713
H          9.95235        39.41353        -1.27975
H         13.17210         2.61895        -0.57719
H         12.40692        39.37596        -1.20905
H         15.61186         2.47740         0.00708
H         14.75504        39.27706        -0.84978
H         18.09491         2.32031         0.31016
H         17.16616        39.29919        -0.56376
H         20.24534         3.49208         0.69686
H         21.54133         5.59597         0.87040
H         21.65625         8.04689         0.81805
H         21.72427         9.96500         0.81637
H         21.75821        12.39229         0.94654
H         21.83660        14.30460         0.59855
H         21.85511        16.73387         0.70557
H         21.85225        18.62067         0.50083
H         21.86436        21.04743         0.50293
H         21.76665        22.92123         0.20352
H         21.75919        25.37144         0.00379
H         21.69175        27.35846         1.65641
H         21.45118        29.74437         2.05423
H         21.57441        31.62386         1.23065
H         21.65691        34.00519         0.68732
H         21.86769        35.77995        -0.01331
H         21.75804        38.24330         0.03051
H         19.57149        39.40841        -0.31872
