         276
 CSIRO Nanostructure Databank - Neutral Graphene Oxide Data Set
C        -10.58412         0.22925        -1.94583
C         -9.25698         0.93760        -1.72096
C         -8.29540         0.25117        -0.71004
C         -7.00827         1.04505        -0.39825
C         -6.25971         0.70272         0.86722
C         -5.00656         1.44860         1.21876
C         -3.75573         0.69014         1.66623
C         -2.43387         1.41533         1.49844
C         -1.21003         0.70196         1.01317
C         -0.16551         1.57302         0.36443
C          1.00505         0.89511        -0.28257
C          2.29041         1.66109        -0.46239
C          3.54163         0.87662        -0.15991
C          4.79547         1.57503         0.27111
C          6.05522         0.71314         0.60891
C          7.35886         1.53909         0.69649
C          8.63550         0.74018         0.79907
C          9.95578         1.52259         0.76217
C         11.08716         0.66992         0.21785
C         -9.35561         2.42253        -1.35420
C         -8.23520         3.16368        -1.09376
C         -6.88238         2.45448        -1.16382
C         -5.68862         3.26621        -0.59685
C         -4.74699         2.71630         0.43365
C         -3.71488         3.60907         1.05733
C         -2.48106         2.91675         1.49684
C         -1.17569         3.66841         1.54092
C         -0.07905         3.02847         0.71876
C          1.24522         3.74815         0.59915
C          2.32899         3.13385        -0.24303
C          3.66809         3.87888        -0.44901
C          4.93225         3.03226        -0.12017
C          6.20926         3.77080         0.10965
C          7.42048         3.03252         0.57828
C          8.68687         3.70541         0.16142
C          9.83424         2.76895        -0.16456
C         -8.24290         4.61583        -1.01293
C         -7.10896         5.38592        -0.92772
C         -5.71401         4.78310        -0.83863
C         -4.92793         5.63718         0.18041
C         -3.59958         5.01911         0.57182
C         -2.42931         5.86151         0.99446
C         -1.20651         5.16296         1.55877
C          0.09124         5.89337         1.36701
C          1.36096         5.18410         1.01795
C          2.60528         6.01408         0.69557
C          3.79483         5.27990         0.14246
C          5.07202         5.98062        -0.37832
C          6.23932         5.28559         0.40028
C          7.55247         5.93052        -0.04052
C          8.70397         5.03329        -0.16327
C         -7.14735         6.84245        -0.95954
C         -6.01465         7.61361        -0.84589
C         -4.69479         6.88807        -0.66997
C         -3.63367         7.82120        -0.09084
C         -2.59288         7.37439         0.89424
C         -1.57916         8.50270         1.33825
C          0.10539         7.37548         1.49838
C          1.72593         8.49107         1.34242
C          2.45237         7.50296         0.35156
C          3.79228         8.22346         0.12530
C          5.04362         7.47214        -0.15189
C          6.37277         8.14247         0.22639
C          7.56963         7.28486        -0.20553
C         -5.98826         9.06938        -0.87404
C         -4.84643         9.80400        -0.83206
C         -3.48411         9.12714        -0.87013
C         -2.25074         9.94483        -0.52689
C         -1.19677         9.51725         0.26498
C          0.08355        10.16889         0.14677
C          1.38330         9.75151         0.56207
C          2.56489        10.37534         0.16318
C          3.91172         9.73008         0.51706
C          5.14391        10.27332        -0.20059
C          6.28961         9.57125        -0.27999
C        -10.86074        -1.07469        -1.72605
C        -10.14221        -1.88947        -0.74349
C         -8.66260        -0.73100         0.28821
C         -7.65187        -1.47858         1.02691
C         -6.35124        -0.74983         1.27253
C         -5.08202        -1.52419         1.45798
C         -3.74207        -0.81229         1.51373
C         -2.60595        -1.42732         0.72693
C         -1.19305        -0.83688         0.81887
C         -0.29370        -1.33683        -0.31579
C          0.97720        -0.56376        -0.58127
C          2.27789        -1.26060        -0.92244
C          3.57207        -0.54446        -0.65437
C          4.89558        -1.26948        -0.68223
C          6.15337        -0.56725        -0.24348
C          7.41097        -1.40190        -0.03345
C          8.59720        -0.74677         0.64606
C          9.94390        -1.53750         0.57375
C         11.05485        -0.65762         0.04523
C         -9.56741        -3.11646        -0.76404
C         -9.01000        -3.77218         0.51710
C         -7.75764        -3.02141         1.15759
C         -6.43975        -3.76554         1.35900
C         -5.11943        -3.02332         1.28899
C         -3.98932        -3.63113         0.49044
C         -2.76628        -2.80558         0.16032
C         -1.66317        -3.58187        -0.61472
C         -0.38002        -2.75317        -0.79069
C          0.90701        -3.47140        -1.20896
C          2.22758        -2.73786        -1.23091
C          3.57108        -3.46181        -1.32694
C          4.79858        -2.78627        -0.71244
C          6.03598        -3.59092        -0.44220
C          7.35292        -2.89165        -0.19876
C          8.57326        -3.68988         0.30996
C          9.71325        -2.81648        -0.14872
C         -8.82888        -5.28770         0.38037
C         -7.67910        -5.95447         0.61661
C         -6.45769        -5.25983         1.13425
C         -5.18369        -5.89980         0.61642
C         -3.97326        -5.10188         0.24265
C         -2.66588        -5.87183        -0.05167
C         -1.43124        -4.95610        -0.02671
C         -0.10235        -5.61193        -0.19629
C          0.83456        -5.00738        -1.26637
C          2.24305        -5.72004        -1.46156
C          3.56246        -4.95824        -1.51823
C          4.87139        -5.74678        -1.34866
C          6.11921        -5.03380        -0.88547
C          7.29909        -5.81518        -0.39955
C          8.62627        -5.09362        -0.34125
C         -7.41645        -7.08929         1.62157
C         -6.21233        -8.07987         1.54960
C         -5.06930        -7.35057         0.85605
C         -3.71940        -7.94819         1.06264
C         -2.50020        -7.14512         0.77526
C         -1.17866        -7.94662         0.65678
C          0.00488        -7.09151         0.09272
C          1.16238        -7.83542        -0.47027
C          2.29287        -7.20406        -1.24461
C          3.56150        -8.07985        -1.24600
C          4.87140        -7.26737        -1.27242
C          6.09911        -7.96494        -0.75558
C          7.26251        -7.16418        -0.31802
C         -6.21078        -9.44786         0.89411
C         -5.02858       -10.06502         0.70912
C         -3.65825        -9.48006         1.05064
C         -2.58181        -9.92698         0.05683
C         -1.41462        -9.26713        -0.11613
C         -0.24180        -9.94205        -0.83231
C          1.09895        -9.32391        -0.49292
C          2.26403        -9.96193        -0.26657
C          3.52664        -9.13264        -0.08696
C          4.79409        -9.95950        -0.10114
C          5.98330        -9.38354        -0.31536
O         -2.53752         5.27718        -0.37355
O          4.26823         8.08336        -1.25710
O         -3.13753        -1.61093        -0.61781
O          1.70141         4.09706         1.93623
O          3.71109        -4.04091        -2.64319
O          5.76771        -0.56716        -1.63187
O          0.63064         0.41079        -1.60868
O          2.06647        -6.66952        -2.57082
O         -5.87272        -1.06011         2.58708
O          3.78082         1.20463         1.25367
O          5.88625         3.24244        -1.21453
O          8.45336        -0.17232         1.95558
O         -6.77525        -5.98715         2.43094
O         -0.44201        -4.89624         1.03815
O         -9.95563        -1.11746         0.48916
O         -0.84393        -8.49028         1.89096
O          1.20240        -7.30786         0.90934
O         -5.59090        -3.59075         2.53960
O          7.83716        -2.02576        -1.28676
O         -3.46813         3.40756         2.46381
O         -4.43897        -4.18311        -0.80155
O         -6.21836         1.59856         2.01354
O          2.07071         8.55515         2.53493
O         -4.45188         2.59581        -0.98282
O         -8.15632        -2.15723         2.22731
O          5.83512        -7.82544        -2.20623
O          5.86259        -5.24738        -2.30368
O         -6.96671        -0.09425        -1.25839
O         -1.63505         8.87746         2.51242
O          3.68435         5.55360         1.55432
O         -5.03316         5.04976        -2.11181
O          1.43995        -2.94970        -2.44720
O         -6.58824         2.22469        -2.48272
O          2.01789         2.56655        -1.55655
O         -3.88647         7.90430         1.35029
O         -3.61783        -0.19010         2.81557
O          0.25119         6.75220         2.60656
O         -4.29772         6.33860        -1.96401
O         -1.06968         4.38868         2.79528
O          6.09897         5.50182         1.76303
O          7.34182         2.42550         1.89719
O         -5.44025        -6.87948        -0.46611
O          5.06279        -3.34856         0.62387
O         -3.03174        -7.19274         2.12021
O          2.97996        -0.56406        -1.99067
O         -1.38783         0.98625         2.43272
O         -0.81316        -1.64122        -1.63459
O         -0.70107         2.60507        -0.52798
O         -8.69086         0.82118        -3.03092
H         -7.81155         1.32294        -3.04585
O          3.54562        -8.45130         1.18399
H          2.62916        -8.35296         1.53013
O         -3.23409        -9.95296         2.33567
H         -2.39817        -9.45515         2.54110
O         -3.22002         8.79886        -2.26375
H         -3.82612         8.08040        -2.55781
O        -10.06147        -3.68473         1.49383
H         -9.85723        -2.94031         2.10769
O          3.68575         4.17790        -1.85414
H          3.68457         3.33956        -2.36399
O          8.50239        -3.84724         1.72708
H          9.14069        -3.21554         2.14845
O         10.27222         1.95001         2.09328
H          9.44112         2.28142         2.50402
O          5.38515         5.81222        -1.75210
H          4.87984         6.47766        -2.26850
O          9.08113        -4.95218        -1.69567
H          8.33781        -5.12700        -2.31159
O         -0.57827        -1.39374         1.99638
H         -0.88964        -0.87023         2.77425
O          5.85706         0.16829         1.92145
H          5.98718         0.89236         2.57377
O          9.59804         2.23980        -1.47922
H          9.41583         2.98033        -2.09420
O         -5.72003         5.86753         1.33925
H         -5.31393         6.61600         1.83840
O         -0.44022        -9.84536        -2.25178
H         -0.32174        -8.91429        -2.53252
O          4.18914         9.93693         1.90651
H          3.50321         9.50673         2.47326
O          6.42661         8.16796         1.66596
H          6.34012         7.21768         1.97751
O         -2.17197        -3.77963        -1.94118
H         -2.31893        -2.88576        -2.32841
O          1.69979         7.53090        -0.87586
H          2.34609         7.60995        -1.61686
O         10.29537        -1.87477         1.94774
H         10.01305        -1.10460         2.50193
O         -2.73538        -6.36040        -1.40426
H         -2.86069        -5.57837        -1.99565
O         -5.87390        -8.32150         2.92522
H         -5.79359        -7.45068         3.37493
O          3.49624        -8.86556        -2.44255
H          3.51182        -8.25277        -3.20884
O          0.09282        -5.28061        -2.46831
H          0.55021        -4.82775        -3.21144
H         11.93315        -1.16819        -0.37851
H         11.98380         1.22204        -0.10512
H         10.80968         3.33088        -0.14771
H          9.65041         5.47512        -0.51992
H          8.51226         7.79673        -0.46232
H          7.17862        10.02238        -0.74810
H          5.10698        11.30902        -0.57363
H          2.53226        11.31247        -0.41832
H          0.07851        11.05332        -0.51674
H         -2.06808        10.78867        -1.21457
H         -4.90149        10.90186        -0.87033
H         -6.95888         9.58740        -0.92374
H         -8.12733         7.32896        -1.08516
H         -9.21985         5.12003        -1.09252
H        -10.33068         2.92445        -1.46102
H        -11.24562         0.77230        -2.63944
H        -11.75594        -1.52003        -2.18969
H         -9.68478        -3.74398        -1.65937
H         -9.78123        -5.83948         0.34089
H         -8.31385        -7.51161         2.12880
H         -7.15367        -9.94875         0.62572
H         -5.02361       -11.08073         0.28108
H         -2.71380       -10.91024        -0.42522
H         -0.23526       -11.03167        -0.58243
H          2.32543       -11.06131        -0.25631
H          4.73117       -11.02010         0.18587
H          6.91500        -9.96652        -0.24789
H          8.16350        -7.70862         0.00708
H          9.37285        -5.71162         0.22171
H         10.24217        -3.06699        -1.08192
