         640
 CSIRO Nanostructure Databank - Neutral Graphene Oxide Data Set
C         23.21542        27.69339        -2.27669
C         23.17205        29.05246        -2.00730
C         23.04629        31.94448        -1.23233
C         23.05796        33.20337        -0.69520
C         22.97520        35.96309         0.29569
C         22.94773        37.31409         0.60382
C         22.91291        40.24255         0.51168
C         22.92423        41.61469         0.36149
C         22.99937        44.50592        -0.17108
C         23.05595        45.84356        -0.55774
C         25.64613        24.84356        -2.08788
C         24.48782        25.56100        -2.31874
C         25.51056        27.62486        -1.44348
C         24.39601        26.95693        -2.01314
C         25.52307        29.03929        -1.30782
C         24.31758        29.74610        -1.56901
C         25.58445        31.96824        -1.31067
C         24.29904        31.23067        -1.53584
C         25.57131        33.48019        -1.02119
C         24.24157        33.96811        -0.47899
C         25.42649        35.99903         0.31173
C         24.19855        35.28914         0.03935
C         25.39103        37.37820         0.66164
C         24.13244        38.06736         0.71148
C         25.32052        40.23346         0.87153
C         24.11252        39.52011         0.74433
C         25.34543        41.63721         0.67419
C         24.13650        42.34455         0.39199
C         25.43568        44.42238         0.02683
C         24.17191        43.76420         0.10131
C         25.49254        45.80120        -0.37807
C         24.28673        46.50380        -0.68898
C         25.54704        48.51706        -1.31804
C         24.37229        47.85621        -1.20683
C         27.97765        23.27992        -1.21408
C         27.96309        24.69861        -1.13422
C         26.75390        25.42048        -1.41983
C         27.95855        27.55967        -0.59996
C         26.63959        26.80970        -0.99425
C         27.96333        29.01809        -0.74853
C         26.75990        29.74267        -0.99750
C         27.95550        31.86748        -0.63338
C         26.78919        31.17349        -0.96992
C         27.90868        33.22546        -0.15122
C         26.73117        33.94519        -0.16538
C         27.83897        35.95538         0.79088
C         26.66997        35.30038         0.34784
C         27.82625        37.36606         1.00361
C         26.60592        38.06332         0.93253
C         27.84559        40.24745         1.13163
C         26.55017        39.50680         1.36097
C         27.82699        41.62727         0.96287
C         26.60222        42.33805         0.70995
C         27.89596        44.37258         0.17325
C         26.63337        43.71214         0.34894
C         27.91826        45.68989        -0.36263
C         26.74067        46.44634        -0.55689
C         28.08863        48.34791        -1.53560
C         26.83135        47.95543        -0.76280
C         28.31916        49.65961        -2.13366
C         30.34553        23.21694        -0.66422
C         29.12911        22.56295        -0.96258
C         30.39573        24.63210        -0.65598
C         29.18350        25.38320        -0.83031
C         30.42322        27.52904        -0.67685
C         29.21667        26.81852        -0.72548
C         30.43095        28.94997        -0.54448
C         29.21285        29.67293        -0.65628
C         30.52058        31.85316        -0.33430
C         29.23531        31.14090        -0.68714
C         30.43140        33.31342         0.09047
C         29.05485        33.63272         0.78009
C         30.33738        35.92927         1.13649
C         29.03325        35.15524         1.27333
C         30.29576        37.33588         1.26416
C         29.08033        38.08339         1.24407
C         30.31572        40.25681         1.25006
C         29.08751        39.51657         1.26168
C         30.36100        41.65469         1.08170
C         29.08184        42.43578         1.21398
C         30.34951        44.43191         0.35133
C         29.12205        43.74690         0.48224
C         30.39099        45.73312        -0.23128
C         29.17724        46.27390        -0.68521
C         31.06614        48.41858        -1.69842
C         29.10410        47.43788        -1.52740
C         30.96436        49.86656        -2.10507
C         29.51039        50.27841        -2.35553
C         32.85741        20.35799        -0.62475
C         31.66278        21.00974        -0.69174
C         32.87178        23.18580        -0.14717
C         31.54778        22.42561        -0.32531
C         32.85792        24.64197        -0.37336
C         31.66109        25.32326        -0.54484
C         32.91845        27.49118        -0.30631
C         31.71971        26.79174        -0.90043
C         32.89137        28.86689        -0.05722
C         31.66980        29.64280        -0.22329
C         32.87927        31.68903         0.48651
C         31.68236        31.01510         0.02596
C         32.85220        33.04906         0.78331
C         31.54311        33.73702         1.06285
C         32.81430        35.94249         1.10915
C         31.59066        35.25486         1.09783
C         32.85206        37.35174         1.30395
C         31.56736        38.03343         1.52534
C         32.85830        40.24019         1.24178
C         31.58385        39.55954         1.50047
C         32.84813        41.65506         1.09545
C         31.58668        42.36579         1.01958
C         32.79302        44.51598         0.76935
C         31.59411        43.78529         0.74956
C         32.85712        45.90027         0.41828
C         31.57010        46.63854         0.11396
C         32.91845        48.75175        -0.22966
C         31.80249        47.91662        -0.67584
C         32.89831        50.11947        -0.48135
C         31.61365        50.75080        -1.00256
C         32.92681        52.88111        -1.19309
C         31.81789        52.16437        -1.48208
C         35.33785        18.88860        -0.08789
C         35.34494        20.28147        -0.35612
C         34.10892        21.03409        -0.41218
C         35.34723        23.16955        -0.42784
C         34.13412        22.44830        -0.34069
C         35.35740        24.59338        -0.31478
C         34.12790        25.33118        -0.32993
C         35.35081        27.42239         0.15188
C         34.13183        26.74566        -0.18987
C         35.31539        28.79266         0.45290
C         34.10235        29.53803         0.35069
C         35.34456        31.64344         0.82172
C         34.09725        30.93180         0.60466
C         35.35062        33.06856         0.93529
C         34.07214        33.77134         1.27167
C         35.35712        35.92237         1.22934
C         34.09476        35.21797         0.77145
C         35.33269        37.35782         1.68686
C         34.05142        38.08272         1.36183
C         35.32571        40.22086         1.19782
C         34.06956        39.51167         1.29740
C         35.31021        41.65606         1.14884
C         34.07186        42.35871         1.10905
C         35.28790        44.58763         1.11949
C         34.00759        43.84678         1.36245
C         35.26348        45.94959         0.94321
C         34.03974        46.64341         0.56643
C         35.25450        48.82972         0.41950
C         34.08643        48.07910         0.29016
C         35.27083        50.24432         0.16433
C         34.04738        50.93067        -0.19322
C         35.16994        53.14603        -0.04593
C         34.04018        52.31659        -0.46119
C         35.31385        54.56477        -0.43913
C         37.77724        18.80050        -0.10931
C         36.51289        18.17449         0.03744
C         37.79961        20.20559        -0.38636
C         36.59497        20.93788        -0.51450
C         37.89687        23.14337        -0.81948
C         36.58461        22.40847        -0.74334
C         37.88085        24.53818        -0.19406
C         36.59751        25.30723        -0.14187
C         37.81875        27.42770         0.44921
C         36.59516        26.67784         0.16075
C         37.81836        28.79582         0.74970
C         36.51651        29.46542         1.07286
C         37.83337        31.68099         0.67415
C         36.54558        30.94424         0.86084
C         37.77718        33.09205         1.17299
C         36.57011        33.78212         1.09427
C         37.81375        35.95015         1.41094
C         36.53943        35.23611         1.28006
C         37.80257        37.40495         1.31979
C         36.60200        38.09740         1.32512
C         37.80215        40.24325         1.06453
C         36.56812        39.52944         1.19552
C         37.77327        41.68019         1.02836
C         36.54800        42.36249         1.12401
C         37.73062        44.52944         0.71445
C         36.56798        43.84324         1.44975
C         37.80898        46.00375         1.05993
C         36.51248        46.73827         1.14888
C         37.74742        48.74832         0.26811
C         36.51363        48.25776         1.02390
C         37.74743        50.19737        -0.11472
C         36.49496        50.93996         0.11621
C         37.82162        53.11556         0.07183
C         36.52364        52.37932         0.23922
C         37.80296        54.59658        -0.19184
C         36.48676        55.23149        -0.42927
C         40.25469        15.98166         0.43733
C         39.04325        16.69497         0.34306
C         40.30310        18.68889        -0.42501
C         39.00510        18.04902         0.01716
C         40.30538        20.18388        -0.31989
C         39.08321        20.89182        -0.45939
C         40.39965        22.84305        -0.83945
C         39.12452        22.28512        -0.70150
C         40.45478        24.98181        -0.41977
C         39.11511        25.34706         0.06736
C         40.26079        27.38581         0.82371
C         39.06761        26.76268         0.45356
C         40.28249        28.78820         0.98673
C         39.04675        29.49588         0.92354
C         40.28337        31.58585         1.18689
C         39.07570        30.91921         1.04165
C         40.31653        33.04209         1.45163
C         39.01258        33.79436         1.52289
C         40.33568        35.95103         1.62417
C         39.00064        35.26728         1.47752
C         40.27391        37.41983         1.29109
C         39.07563        38.10114         1.19695
C         40.27368        40.25424         0.90042
C         39.04763        39.54763         1.05125
C         40.25586        41.68704         0.82643
C         39.03021        42.40103         0.92717
C         40.25267        44.53183         0.76367
C         39.04689        43.81467         0.87111
C         40.26924        45.97971         0.67395
C         39.07091        46.71366         0.74488
C         40.25461        48.80078         0.23769
C         39.05526        48.09398         0.47628
C         40.23778        50.22750        -0.04403
C         39.03482        50.90461        -0.17706
C         40.28674        53.07609        -0.47096
C         38.97335        52.34991        -0.57549
C         40.27702        54.48873        -0.66705
C         39.05503        55.23397        -0.69988
C         40.30008        57.24993        -1.27144
C         39.09372        56.59720        -1.02360
C         42.73436        15.91534         0.53646
C         41.50293        16.62557         0.35220
C         42.76543        18.72679         0.22081
C         41.55245        18.03819         0.12622
C         42.79499        20.17161         0.08625
C         41.53921        20.85887        -0.17431
C         42.74763        23.03721         0.13568
C         41.57094        22.25976        -0.34623
C         42.77501        24.52451         0.37548
C         41.56930        25.37184         0.22394
C         42.79437        27.36238         0.90600
C         41.50842        26.58059         1.11219
C         42.78245        28.77070         0.99610
C         41.53333        29.48344         1.08902
C         42.77363        31.62010         1.09697
C         41.53495        30.89103         1.15372
C         42.74420        33.07661         0.96019
C         41.56416        33.76763         1.14476
C         42.70199        35.96675         0.63657
C         41.39584        35.21968         0.75655
C         42.71052        37.31856         0.63001
C         41.60016        38.13309         1.28251
C         42.69903        40.23525         0.46248
C         41.51786        39.55809         0.79447
C         42.69958        41.68267         0.44012
C         41.48026        42.39754         0.66854
C         42.71118        44.53248         0.49896
C         41.48574        43.82011         0.65750
C         42.72353        45.96170         0.43371
C         41.49273        46.68297         0.47611
C         42.72832        48.80465         0.14816
C         41.49106        48.09909         0.29975
C         42.72072        50.23183        -0.04713
C         41.49912        50.93411        -0.15771
C         42.75022        53.05773        -0.46148
C         41.49646        52.35984        -0.36703
C         42.75673        54.46333        -0.72190
C         41.52225        55.16973        -0.84771
C         42.77659        57.23472        -1.31493
C         41.52574        56.56346        -1.14912
C         43.93726        16.57010         0.49556
C         45.23465        18.69735         0.37120
C         44.00748        17.99915         0.38027
C         45.23507        20.17948         0.65480
C         43.98762        20.88978         0.19976
C         45.23417        23.04541         0.30963
C         44.03766        22.32342         0.16237
C         45.25969        24.49363         0.47129
C         44.05342        25.23172         0.54595
C         45.24139        27.38861         0.82775
C         44.01693        26.65832         0.75433
C         45.25101        28.78868         0.89683
C         44.00852        29.50572         0.96215
C         45.27848        31.70021         1.17541
C         43.98795        30.92826         1.01922
C         45.18991        33.10874         0.60750
C         43.97524        33.75950         0.56949
C         45.17628        35.93436         0.13099
C         43.86454        35.17900         0.04630
C         45.15824        37.29831         0.04276
C         43.84367        38.03201        -0.06600
C         45.12906        40.19269         0.03111
C         43.93135        39.51587         0.21803
C         45.11529        41.67702        -0.23699
C         43.89126        42.39363         0.24528
C         45.16566        44.52374         0.25865
C         43.92151        43.80960         0.32780
C         45.18058        45.93672         0.28706
C         43.94889        46.66521         0.30516
C         45.20112        48.79736         0.11322
C         43.95190        48.09314         0.19513
C         45.20130        50.22059        -0.03717
C         43.97108        50.93163        -0.14035
C         45.22224        53.05369        -0.43023
C         43.97690        52.34771        -0.34353
C         45.22858        54.46041        -0.67061
C         43.99366        55.16555        -0.85167
C         43.96140        56.56168        -1.15912
C         47.67540        18.75891         0.17324
C         46.49726        18.05232         0.27119
C         47.71260        20.19920         0.14452
C         46.50224        20.91152         0.27796
C         47.71330        23.05278         0.21160
C         46.49221        22.32944         0.27144
C         47.72238        24.48331         0.39296
C         46.49993        25.17802         0.58085
C         47.73956        27.39055         0.70089
C         46.50722        26.61269         1.07113
C         47.74147        28.77698         0.64028
C         46.50283        29.53171         0.78376
C         47.71578        31.65789         0.47788
C         46.50753        30.92427         0.74488
C         47.68921        33.07339         0.31992
C         46.43965        33.80211         0.32201
C         47.66467        35.92358        -0.03277
C         46.42885        35.19204         0.11792
C         47.66255        37.32412        -0.17031
C         46.37450        38.04301        -0.44044
C         47.59760        40.21052        -0.12552
C         46.38888        39.51539        -0.12230
C         47.60211        41.66483         0.03146
C         46.39825        42.38034         0.10604
C         47.63428        44.49746         0.33131
C         46.40187        43.79349         0.22181
C         47.64250        45.93526         0.34808
C         46.42834        46.64881         0.27815
C         47.66804        48.79211         0.15625
C         46.42596        48.08444         0.18961
C         47.67447        50.21583         0.02540
C         46.44650        50.92605        -0.09261
C         47.69656        53.04981        -0.32307
C         46.45481        52.34622        -0.27847
C         47.66780        54.45771        -0.54281
C         46.48511        55.13227        -0.71967
C         50.17686        20.25208        -0.26639
C         48.93917        20.92168        -0.03315
C         50.17113        23.07559        -0.05927
C         48.94315        22.34823         0.04552
C         50.18027        24.49717         0.12397
C         48.96912        25.17234         0.41422
C         50.28693        27.37107         0.59964
C         48.99049        26.61550         0.73636
C         50.21615        28.83028         0.37629
C         48.98308        29.51596         0.45590
C         50.18435        31.65242         0.18897
C         48.95777        30.94109         0.35601
C         50.16564        33.09058         0.09183
C         48.92047        33.78825         0.11312
C         50.12147        35.92429        -0.27660
C         48.91117        35.21022        -0.04331
C         50.11806        37.36586        -0.33558
C         48.87551        38.06091        -0.23292
C         50.08536        40.19660        -0.25187
C         48.86230        39.49643        -0.21395
C         50.06820        41.66852        -0.28104
C         48.82790        42.38199         0.09355
C         50.12910        44.46689         0.66615
C         48.84850        43.76409         0.29682
C         50.11461        45.95039         0.42013
C         48.89803        46.64852         0.34730
C         50.13739        48.78537         0.25205
C         48.89712        48.07831         0.24605
C         50.15038        50.21141         0.14267
C         48.92207        50.92405         0.00594
C         50.19009        53.01524        -0.14814
C         48.93120        52.34146        -0.15525
C         51.34754        20.94816        -0.41855
C         52.60098        23.09509        -0.50627
C         51.39089        22.37502        -0.31817
C         52.60361        24.52672        -0.43662
C         51.41784        25.22267        -0.04565
C         52.66459        27.33690        -0.09546
C         51.47886        26.63409         0.12438
C         52.74866        28.79671         0.29037
C         51.42394        29.53054         0.16996
C         52.70664        31.64317         0.07780
C         51.40916        30.92792         0.10512
C         52.68483        33.13657        -0.03285
C         51.37366        33.82160        -0.11320
C         52.58151        35.90072        -0.75657
C         51.34441        35.19756        -0.35628
C         52.57249        37.41292        -0.79959
C         51.32231        38.11132        -0.46392
C         52.60385        40.24853        -0.40615
C         51.33155        39.51978        -0.38458
C         52.63157        41.65179        -0.23374
C         51.37519        42.41256        -0.25426
C         52.59885        44.49610         0.26087
C         51.38957        43.81356         0.17332
C         52.59588        45.93029         0.44139
C         51.35590        46.64417         0.42672
C         52.60692        48.77389         0.43989
C         51.36208        48.06981         0.36515
C         52.62217        50.19822         0.27856
C         51.40152        50.91115         0.13416
C         51.37197        52.33395        -0.00556
C         54.98796        23.08271        -1.06206
C         53.85780        22.41787        -0.73344
C         54.97985        24.55715        -1.35513
C         53.79365        25.25605        -0.71890
C         55.04901        27.39362        -0.80346
C         53.82589        26.64827        -0.53881
C         55.05054        28.78041        -0.78311
C         53.89563        29.52817        -0.38009
C         55.13444        31.65553        -0.67466
C         53.91929        30.91039        -0.35775
C         55.11612        33.11741        -0.65658
C         53.91828        33.82894        -0.47889
C         55.07866        35.97359        -0.83791
C         53.88651        35.22817        -0.65977
C         55.05170        37.41406        -0.85666
C         53.86074        38.12587        -0.71666
C         55.08912        40.26674        -0.46015
C         53.84093        39.55010        -0.53491
C         55.09168        41.67618        -0.20786
C         53.85244        42.37558        -0.09825
C         55.07729        44.51092         0.21535
C         53.84844        43.79234         0.10607
C         55.07357        45.91856         0.44587
C         53.82591        46.63773         0.52522
C         55.06243        48.80821         0.99671
C         53.81528        48.05290         0.61176
C         55.06937        50.18902         0.39016
C         53.91203        50.84371         0.14162
C         57.52227        24.56738        -1.02464
C         56.29329        25.26300        -1.07704
C         57.53035        27.38092        -0.90049
C         56.28919        26.66280        -0.98179
C         57.55057        28.79729        -0.95436
C         56.26052        29.50464        -1.31941
C         57.56432        31.69149        -1.34785
C         56.28297        30.97740        -1.01194
C         57.56887        33.14816        -0.96520
C         56.33267        33.84841        -0.85761
C         57.57306        35.99448        -0.84328
C         56.32438        35.27236        -0.86068
C         57.58390        37.41298        -0.84612
C         56.32048        38.17049        -1.16060
C         57.54966        40.28201        -0.52141
C         56.31627        39.58565        -0.63295
C         57.55906        41.69579        -0.28694
C         56.32197        42.39484        -0.13536
C         57.55689        44.51756         0.15597
C         56.31845        43.80578         0.07846
C         57.54954        45.92887         0.38744
C         56.31481        46.63719         0.53172
C         57.57095        48.69783         0.90961
C         56.34075        48.03450         0.77342
C         58.72027        25.23852        -0.83709
C         59.97063        27.37452        -0.63362
C         58.75079        26.65176        -0.77844
C         59.97557        28.74635        -0.64208
C         58.76953        29.50018        -0.83102
C         59.97543        31.67731        -0.71863
C         58.79890        30.94017        -0.89758
C         59.99754        33.07072        -0.77054
C         58.79408        33.83087        -0.85014
C         60.00222        36.00618        -0.59857
C         58.79987        35.27687        -0.74908
C         59.99689        37.38588        -0.55235
C         58.79188        38.11873        -0.70053
C         59.98985        40.30904        -0.61289
C         58.79049        39.57653        -0.63696
C         59.99658        41.68485        -0.42767
C         58.79554        42.40580        -0.23247
C         60.01065        44.56785         0.09924
C         58.79519        43.82946         0.00543
C         60.00980        45.92111         0.33754
C         58.78367        46.63395         0.49022
C         58.77472        48.02108         0.76158
O         31.56117        38.81478         2.76776
O         42.48445        23.58805         1.51888
O         40.51911        24.07997        -1.47768
O         52.43312        36.61732        -2.03827
O         28.83823        32.79272         1.85351
O         37.55495        49.10791        -1.13186
O         30.15156        31.68289        -1.74575
O         52.90075        32.47747         1.28347
O         25.10590        31.74025        -2.69231
O         39.71026        33.32337         2.79174
O         35.66771        52.88311         1.29581
O         37.24753        46.34856         2.38305
O         27.03509        27.04671         0.39681
O         50.61900        42.21806        -1.54340
O         37.15298        22.91459        -2.03881
O         38.56905        24.44597         1.11438
O         49.82123        26.94603         1.92176
O         32.08713        22.74006         1.00382
O         30.18515        47.59594        -2.41078
O         38.09181        54.02400         1.15507
O         33.97088        33.84139         2.73663
H         34.22558        32.96419         3.09547
O         31.15131        47.15877         1.43200
H         31.10781        46.40011         2.05334
O         45.18900        20.26248         2.13635
H         46.02255        19.87003         2.47351
O         37.96673        31.82443        -0.81831
H         37.18403        32.33141        -1.12782
O         38.59463        52.35169        -2.00407
H         39.17262        51.71020        -2.46968
O         37.38456        44.44591        -0.69982
H         38.17185        44.69888        -1.22629
O         43.49599        37.93766        -1.50666
H         44.30271        38.24184        -1.99603
O         42.01261        38.26014         2.69073
H         41.72774        37.43085         3.14818
O         34.16761        35.12961        -0.68197
H         34.08969        36.03416        -1.05025
O         50.19347        44.31261         2.14797
H         50.93570        44.87187         2.46442
O         46.58926        26.47620         2.54317
H         46.75077        27.36873         2.91763
O         26.40433        39.46087         2.83274
H         26.35468        40.38806         3.14946
O         45.03700        41.76244        -1.71765
H         45.81314        41.27879        -2.07539
O         31.20462        33.29572         2.39950
H         31.90848        33.63643         2.99825
O         29.00299        42.79977         2.64659
H         29.18965        41.98762         3.16522
O         36.34155        29.28482         2.53683
H         36.38068        28.32092         2.71816
O         36.73854        43.85693         2.89241
H         36.89226        44.79898         3.15705
O         56.15234        29.40057        -2.78483
H         56.74340        30.09755        -3.16273
O         46.22326        38.02150        -1.93620
H         46.45375        37.11397        -2.23414
O         40.85526        35.18367        -0.59706
H         41.60500        34.93580        -1.19333
O         56.32956        38.31522        -2.63811
H         55.46088        38.69078        -2.89835
O         40.75801        35.82574         3.01821
H         40.49462        34.91144         3.30800
O         30.65164        50.78550         0.08451
H         31.08598        51.18854         0.86463
O         40.36755        18.41038        -1.88288
H         40.34421        17.43478        -1.98712
O         41.45504        26.18251         2.50792
H         41.83862        25.27922         2.57984
O         26.97585        48.53473         0.57925
H         26.19567        48.25980         1.10543
O         28.82746        35.09344         2.70431
H         28.79397        34.10699         2.90234
O         25.75241        34.16889        -2.29737
H         25.36577        33.57200        -2.98293
O         57.65201        31.69049        -2.84402
H         58.49488        32.13651        -3.07868
O         45.45785        31.87607         2.62769
H         44.64294        32.29586         2.97724
O         35.32952        37.29574         3.16045
H         36.11666        36.77973         3.43726
O         31.93121        26.82242        -2.36481
H         32.00630        27.76450        -2.62894
O         31.69253        50.08910        -3.33434
H         31.34125        49.46618        -4.00435
O         30.53796        34.13979        -1.07704
H         30.32088        33.56859        -1.85312
O         36.60913        48.82776         2.35424
H         37.01365        48.14388         2.93691
O         54.78640        24.67442        -2.81226
H         53.93164        24.24484        -3.02765
O         53.07289        28.80048         1.71967
H         53.08202        29.73466         2.02082
O         43.55886        35.08860        -1.39275
H         43.49087        36.03040        -1.70523
O         54.97835        49.00866         2.45972
H         54.16146        49.52403         2.63179
O         33.84047        43.93871         2.83367
H         34.71587        43.69950         3.22587
H         22.33852        27.18158        -2.69707
H         22.24818        29.60877        -2.21633
H         22.08794        31.41965        -1.34619
H         22.08981        33.64006        -0.41091
H         22.01862        35.43603         0.18373
H         21.97118        37.80089         0.72904
H         21.95600        39.71079         0.42865
H         21.97336        42.13029         0.17348
H         22.01436        44.02584        -0.10066
H         22.12595        46.38230        -0.79020
H         25.69111        23.79372        -2.40876
H         23.62572        25.06939        -2.79131
H         25.55638        49.54549        -1.70815
H         23.43880        48.33241        -1.54484
H         27.04619        22.73586        -1.41825
H         27.41823        50.25011        -2.37355
H         29.08481        21.46578        -0.97368
H         29.44254        51.28547        -2.80186
H         32.87930        19.28573        -0.86480
H         30.77157        20.46212        -1.02836
H         32.98712        53.93085        -1.51594
H         30.98536        52.64372        -2.01739
H         34.38323        18.36510         0.05546
H         34.40295        55.11596        -0.71719
H         36.45369        17.09963         0.25466
H         36.47687        56.29064        -0.72644
H         40.22390        14.90505         0.65849
H         38.11294        16.14790         0.55204
H         40.30283        58.32156        -1.51645
H         38.16465        57.18209        -1.06031
H         42.70046        14.82703         0.69138
H         42.77671        58.30715        -1.55777
H         44.86363        15.99240         0.61937
H         44.90129        57.11510        -1.28445
H         48.61180        18.19379         0.07938
H         46.54213        16.95530         0.21230
H         48.60561        55.02661        -0.58471
H         46.52174        56.21577        -0.89178
H         50.20155        19.15759        -0.34856
H         50.22657        54.10772        -0.25030
H         52.26799        20.38588        -0.62150
H         52.31122        52.90268         0.00666
H         55.90328        22.50526        -1.25151
H         53.90534        21.32647        -0.61587
H         56.02688        50.71026         0.24808
H         53.95333        51.87932        -0.22472
H         57.54440        23.47308        -1.11181
H         57.58788        49.76984         1.14937
H         59.66239        24.67575        -0.76862
H         60.91262        26.81829        -0.52170
H         60.93398        29.27069        -0.53275
H         60.92138        31.16150        -0.50401
H         60.96242        33.57830        -0.64690
H         60.96170        35.48084        -0.50611
H         60.95051        37.91088        -0.41052
H         60.95284        39.79821        -0.74421
H         60.96331        42.20449        -0.42287
H         60.97418        44.05329        -0.01079
H         60.95898        46.47049         0.41589
H         59.72861        48.55752         0.86584
