         276
 CSIRO Nanostructure Databank - Neutral Graphene Oxide Data Set
C        -11.03978         0.62857        -0.98526
C        -10.19910         1.47371        -0.05191
C         -8.99722         0.72499         0.53516
C         -7.74550         1.44576         0.95527
C         -6.49142         0.65673         1.44983
C         -5.12335         1.44898         1.36178
C         -3.79956         0.70869         1.38348
C         -2.39103         1.43356         1.55168
C         -1.20780         0.80215         0.88012
C          0.15515         1.40604         1.09415
C          1.32960         0.79338         0.32327
C          2.53514         1.43421         0.41476
C          3.81636         0.77301         0.21093
C          5.01787         1.41264         0.30648
C          6.24323         0.63174         0.75457
C          7.55005         1.45044         0.73061
C          8.86175         0.69302         0.77521
C         10.19254         1.47506         0.68838
C         11.30436         0.68083         0.05524
C         -9.82828         2.86651        -0.51129
C         -8.78583         3.60594         0.02803
C         -7.66937         2.93801         0.76776
C         -6.36727         3.66014         0.89768
C         -5.07422         2.84711         0.72688
C         -3.79837         3.64549         1.03247
C         -2.48574         2.96955         1.29180
C         -1.18672         3.69799         0.99434
C          0.10268         2.93688         0.92636
C          1.24590         3.54263         0.12732
C          2.53660         2.90382         0.60676
C          3.81858         3.65286         0.51622
C          5.14468         2.88326         0.61749
C          6.29727         3.50388        -0.16669
C          7.60791         2.71865        -0.12049
C          8.84000         3.58291         0.08987
C         10.04689         2.91846         0.24144
C         -8.67857         5.00110        -0.24949
C         -7.54031         5.79966         0.03432
C         -6.33345         5.14375         0.60877
C         -5.01130         5.84426         0.47202
C         -3.76669         5.00357         0.36496
C         -2.47729         5.68589         0.03953
C         -1.18782         5.05330         0.37939
C          0.00317         5.73886         0.16468
C          1.27794         5.04567         0.18944
C          2.46743         5.71752         0.04210
C          3.71236         4.92009        -0.32824
C          4.99663         5.72534        -0.33414
C          6.29931         4.98176        -0.31871
C          7.55368         5.75387        -0.13003
C          8.76785         5.00427        -0.02086
C         -7.50066         7.14093        -0.34965
C         -6.28095         7.95700        -0.35371
C         -4.98125         7.26330        -0.04196
C         -3.75336         7.72312        -0.80850
C         -2.49617         7.21071        -0.07455
C         -1.22514         7.77585        -0.71832
C          0.02873         7.14796        -0.18741
C          1.21193         7.85643        -0.21475
C          2.48289         7.16833        -0.03905
C          3.66162         7.87684        -0.09122
C          4.97165         7.18528        -0.14816
C          6.19941         7.86641         0.41039
C          7.48798         7.13041         0.06321
C         -6.18183         9.20599        -1.14983
C         -4.99296         9.84100        -1.32132
C         -3.71893         9.23312        -0.96278
C         -2.53446         9.92111        -0.90267
C         -1.24953         9.28157        -0.67684
C         -0.08150         9.97733        -0.50854
C          1.21265         9.31385        -0.39037
C          2.39472        10.00781        -0.42838
C          3.70656         9.28601        -0.61481
C          4.98504         9.99340        -0.19518
C          6.12874         9.35541         0.11597
C        -10.98082        -0.70917        -1.07300
C         -9.77380        -1.50207        -0.63283
C         -8.97037        -0.78943         0.44937
C         -7.71450        -1.51029         0.81267
C         -6.43556        -0.70344         0.76477
C         -5.13991        -1.35742         0.40023
C         -3.82761        -0.80511         1.06155
C         -2.60913        -1.27134         0.24465
C         -1.29029        -0.45123         0.08934
C          0.02411        -1.31970         0.28128
C          1.24320        -0.57567        -0.32942
C          2.51652        -1.39576        -0.11791
C          3.81293        -0.70792         0.13858
C          5.10025        -1.35970        -0.27513
C          6.37174        -0.73065         0.13320
C          7.58928        -1.39424         0.05908
C          8.82365        -0.74994         0.42304
C         10.06218        -1.44642         0.21491
C         11.28987        -0.66659         0.05727
C         -9.94029        -2.97685        -0.31772
C         -8.93505        -3.69001         0.23249
C         -7.65543        -3.03692         0.75303
C         -6.51930        -3.58784        -0.10050
C         -5.17706        -2.84248        -0.01586
C         -3.87389        -3.59106        -0.05301
C         -2.60435        -2.76781         0.02666
C         -1.31106        -3.46024         0.44620
C         -0.16341        -2.74765        -0.32319
C          1.16764        -3.52444        -0.42633
C          2.48830        -2.81664        -0.60893
C          3.80675        -3.61980        -0.71752
C          5.08535        -2.78993        -0.68596
C          6.38216        -3.57993        -0.88215
C          7.65313        -2.75035        -0.57704
C          8.92105        -3.55601        -0.44714
C         10.10160        -2.82870         0.03663
C         -8.96072        -5.21197         0.38882
C         -7.62512        -5.88085         0.03237
C         -6.38383        -5.06668         0.24169
C         -5.06775        -5.76702         0.25490
C         -3.78525        -5.06931         0.03192
C         -2.59960        -5.75333         0.03659
C         -1.39710        -5.00857         0.56938
C         -0.02559        -5.68990         0.52673
C          1.20681        -4.91204         0.13663
C          2.54046        -5.63436         0.16918
C          3.82875        -4.89158         0.10678
C          5.13838        -5.63347         0.13132
C          6.41091        -4.92830        -0.17734
C          7.65784        -5.72369        -0.38326
C          8.84132        -5.04646        -0.48788
C         -7.52194        -7.16184        -0.38841
C         -6.17189        -7.75422        -0.79112
C         -5.07346        -7.25654         0.12854
C         -3.79953        -8.00227         0.33705
C         -2.53342        -7.17737         0.61277
C         -1.24100        -8.05876         0.51821
C          0.06496        -7.21666         0.57215
C          1.33856        -7.87460         0.11705
C          2.48008        -7.02118        -0.42631
C          3.84190        -7.73381        -0.46165
C          5.06020        -7.14667         0.27213
C          6.33988        -7.84247        -0.17675
C          7.51980        -7.17605        -0.38966
C         -6.09399        -9.24897        -0.97110
C         -4.95882        -9.94393        -0.80222
C         -3.67629        -9.44283        -0.16965
C         -2.42455        -9.66223        -0.99030
C         -1.21702        -9.11244        -0.58189
C          0.02083        -9.71161        -0.94980
C          1.29120        -9.22072        -0.54163
C          2.48774        -9.85952        -0.84704
C          3.81051        -9.21214        -0.66816
C          5.05629        -9.95197        -0.35132
C          6.23937        -9.29996        -0.20891
O         -3.25899         3.61614         2.36941
O         -5.85847        -0.55328        -0.57766
O          6.17691         4.06902        -1.50409
O          3.20441        -5.17566         1.38825
O         -5.68100         5.79411         1.75429
O          5.61655         2.89676         1.96424
O         -8.82778         1.18098         1.91058
O          3.07851        -1.35813         1.22737
O          1.03631        -7.75064         1.52047
O         -1.80200        -5.07590         2.00331
O         -0.23891         3.63857         2.13477
O          1.69736        -3.22213        -1.75336
O         -1.26057         7.33043        -2.16532
O          1.09315         3.10101        -1.28381
O          5.10528         6.64335        -1.51938
O         -4.81006        -7.91562         1.39383
O          0.74088        -4.95594         1.53225
O         -4.55837        -3.16443        -1.29844
O          5.04239        -1.73680        -1.71347
O         -7.20946         3.47250         2.06799
O         -4.47560         1.14962         2.61015
O          4.12295        -8.22374        -1.79540
O         -1.41259        -8.79509         1.72756
O         -3.24065         4.93991        -1.00115
O          8.53940        -2.83991        -1.72570
O         -5.53166         8.16465         0.93816
O          3.07831         3.59773         1.76212
O         -2.77291        -1.82414        -1.07235
O          5.95692        -4.99613         1.20317
O         -5.70385        -5.30933         1.50850
O          8.20955         1.25922         1.99012
O         -8.77430        -1.27797         1.80646
O          0.51887         1.13308         2.48780
H         -0.24305         1.43332         3.04794
O         -6.99464        -3.48180        -1.46446
H         -6.19563        -3.45312        -2.04601
O         -5.83204        -7.16012        -2.08776
H         -6.48170        -7.48233        -2.74734
O         10.68042         1.64949         2.06024
H          9.88088         1.80873         2.61787
O         -3.89727         7.15511        -2.12393
H         -3.04529         7.28253        -2.60682
O          3.83140        -4.21050        -2.04254
H          3.89119        -3.48001        -2.69560
O          1.15877        -0.42066        -1.75753
H          0.35381         0.12655        -1.94109
O         -7.42726        -3.46756         2.10410
H         -8.02342        -2.93993         2.68140
O         -1.31008         0.05165        -1.28816
H         -1.66230        -0.69289        -1.84198
O          3.49563         4.45166        -1.68713
H          4.01514         5.03588        -2.28374
O          6.42742        -3.94317        -2.27393
H          6.48455        -3.11210        -2.79309
O          4.87310        -7.45970         1.66717
H          5.20378        -6.69832         2.19407
O         -3.45005       -10.31277         0.96712
H         -2.67382        -9.91115         1.47300
O         -2.50939         7.73513         1.26659
H         -3.42461         7.73197         1.62313
O          0.34119        -1.47834         1.66169
H          0.55920        -0.60238         2.08060
O          3.83242         9.14346        -2.08073
H          4.45796         8.40104        -2.24982
O          5.95091         0.35610         2.14205
H          5.78254         1.27745         2.52249
O         -0.33472         8.14924        -2.90904
H          0.55289         7.85871        -2.57914
O         -6.69789         0.36795         2.83083
H         -7.02576         1.17732         3.27690
O        -10.02263        -5.79149        -0.35974
H         -9.88614        -5.57862        -1.30538
O         -0.26451         3.42835        -1.69606
H         -0.11401         3.94167        -2.52697
O        -11.12460         1.74694         1.04655
H        -10.56678         1.88067         1.85089
O          6.07500         7.73504         1.86179
H          6.83130         8.19676         2.28040
O          2.08239        -6.74303        -1.79709
H          2.73806        -7.19444        -2.38556
O         -3.73176        -1.51047         2.31291
H         -4.11117        -0.93918         3.01828
O         -2.08798         1.33726         2.97264
H         -2.71834         1.93902         3.43596
O         -5.00829         2.56248        -0.70136
H         -4.50396         3.26984        -1.16388
O         -1.23996        -3.15793         1.87737
H         -0.37903        -3.52006         2.21540
O          7.77603         2.13418        -1.44860
H          7.43706         2.80250        -2.09207
O         -8.90868        -1.43783        -1.81628
H         -8.21031        -2.14032        -1.74447
O         -0.62785        -2.63041        -1.67410
H          0.16114        -2.40779        -2.22829
O         -2.44030        -6.89769         2.05176
H         -3.36089        -6.77965         2.40266
H         12.18535        -1.22191        -0.26167
H         12.22997         1.21985        -0.19617
H         10.97058         3.51769         0.30800
H          9.70602         5.56871         0.10741
H          8.42945         7.67020         0.26214
H          7.03761         9.94823         0.31417
H          5.00629        11.08853        -0.31809
H          2.37908        11.10270        -0.54568
H         -0.09656        11.07824        -0.51850
H         -2.54228        11.01555        -1.02944
H         -4.97242        10.83430        -1.79585
H         -7.11413         9.67404        -1.49976
H         -8.39495         7.56772        -0.83022
H         -9.52506         5.48241        -0.76299
H        -10.59239         3.41120        -1.08916
H        -11.89606         1.15302        -1.43869
H        -11.72452        -1.24004        -1.68827
H        -10.83690        -3.49916        -0.69019
H         -9.16049        -5.43760         1.47168
H         -8.43347        -7.76440        -0.53231
H         -6.98304        -9.75776        -1.37831
H         -4.96576       -11.02400        -1.01881
H         -2.41047       -10.50836        -1.69724
H         -0.01222       -10.62860        -1.56046
H          2.46119       -10.86053        -1.30717
H          5.02274       -11.05117        -0.33179
H          7.16796        -9.88242        -0.10271
H          8.42350        -7.76302        -0.62152
H          9.78724        -5.60293        -0.58243
H         11.07641        -3.34156         0.03317
