         720
 CSIRO Nanostructure Databank - Neutral Graphene Oxide Data Set
C         23.16360        27.19784         1.04661
C         23.25416        28.49315         1.51974
C         23.38222        31.23651         2.36619
C         23.42865        32.52429         2.93444
C         23.31500        36.11395         2.61691
C         23.15537        37.26571         1.88952
C         23.01564        39.93983         0.56038
C         22.97067        41.25007         0.19046
C         23.22937        44.14282        -0.83593
C         23.35795        45.46306        -1.24139
C         25.33061        24.58174        -0.48252
C         24.18384        25.24795        -0.07825
C         25.40682        27.38648         0.08798
C         24.23892        26.61732         0.33444
C         25.46618        28.72206         0.52353
C         24.40069        29.28524         1.26673
C         25.73990        31.38478         1.65391
C         24.50934        30.65654         1.76307
C         25.84147        32.72378         2.28905
C         24.59719        33.24227         2.88993
C         25.71705        35.86332         2.02114
C         24.61547        35.50822         2.74090
C         25.57670        37.09927         1.14212
C         24.29131        37.90324         1.31262
C         25.46864        40.00812         0.81487
C         24.24407        39.25780         0.92839
C         25.42444        41.47165         0.84221
C         24.09189        42.16453         0.47751
C         25.39887        44.27725         0.28505
C         24.22818        43.53375        -0.05082
C         25.46186        45.66278        -0.01943
C         24.44964        46.25211        -0.80572
C         25.59353        48.42181        -0.83092
C         24.59104        47.62088        -1.26255
C         27.84994        23.13915        -0.66877
C         27.81175        24.55608        -0.62456
C         26.55827        25.25792        -0.62494
C         27.83812        27.42474        -0.55457
C         26.50411        26.76091        -0.76146
C         27.83669        28.89860        -0.43120
C         26.61433        29.58808         0.16045
C         28.00568        31.60629         0.63341
C         26.81116        30.89136         0.84600
C         28.34223        32.85537         1.47133
C         27.09644        33.57773         2.10606
C         28.16522        35.82202         1.38948
C         27.09549        35.16900         2.24500
C         28.13676        37.28790         1.23830
C         26.80523        37.97536         1.23291
C         27.91159        40.12318         0.60903
C         26.70800        39.38289         0.80094
C         27.91890        41.52928         0.63429
C         26.67380        42.23707         0.75770
C         27.80345        44.40257         1.13851
C         26.59573        43.62997         0.75750
C         27.77445        45.94312         1.23466
C         26.49110        46.52119         0.61326
C         27.75895        48.78659         0.60992
C         26.49136        47.99218         0.25878
C         27.78343        50.14064        -0.04022
C         30.26745        23.15394        -0.42424
C         29.05759        22.46426        -0.59586
C         30.28405        24.56978        -0.34895
C         29.04572        25.27089        -0.49220
C         30.26805        27.46907        -0.23962
C         29.01217        26.71776        -0.50941
C         30.32623        28.86611        -0.83361
C         29.09951        29.63440        -0.38661
C         30.22943        31.82574        -0.61344
C         29.11385        30.97285        -0.05218
C         30.57616        33.04955         0.25444
C         29.34953        33.76298         0.77999
C         30.32726        36.07445         0.23561
C         29.29841        35.15403         0.88090
C         30.62789        37.45162         0.84488
C         29.25900        37.91405         0.42085
C         30.34678        40.23387        -0.13178
C         29.10210        39.39775         0.12647
C         30.36891        41.65269         0.28899
C         29.15854        42.26771         0.57489
C         30.40195        44.45338         1.00969
C         29.12516        43.66773         1.05774
C         30.36149        45.95325         0.82806
C         29.04310        46.62962         0.66648
C         30.26105        48.69194         0.07482
C         29.02384        47.96367         0.35200
C         30.21398        50.07480        -0.12394
C         28.95990        50.75439        -0.30307
C         32.73893        20.49486         0.61261
C         31.57096        21.14618         0.44115
C         32.79533        23.14718        -0.33409
C         31.53316        22.34172        -0.48623
C         32.77150        24.58426        -0.31432
C         31.55079        25.27103        -0.19604
C         32.86372        27.50658         0.17295
C         31.53790        26.73019         0.04853
C         32.78558        28.95785        -0.32674
C         31.62269        29.60256        -0.59127
C         32.83002        31.82840        -0.74996
C         31.55886        31.05319        -1.03888
C         32.83037        33.20827        -0.76458
C         31.54069        33.91171        -0.53918
C         32.89236        35.99103        -0.17153
C         31.52972        35.39319        -0.37793
C         33.00599        37.44241         0.23711
C         31.72501        38.15632         0.43176
C         32.87963        40.31544        -0.05689
C         31.65171        39.48941        -0.31181
C         32.89483        41.63926         0.24854
C         31.63840        42.37455         0.42067
C         32.89727        44.53522         0.75295
C         31.64313        43.73462         0.66210
C         32.85937        45.98363         0.38585
C         31.60029        46.64187         0.36624
C         32.72991        48.67860        -0.48720
C         31.52468        48.00216         0.05125
C         32.64243        50.16349        -0.72170
C         31.50294        50.84205         0.02334
C         32.53414        53.02216        -0.53958
C         31.42257        52.31491        -0.23984
C         35.19724        18.89119         0.30502
C         35.13517        20.27193        -0.08669
C         33.97694        21.02106         0.03766
C         35.25740        23.12275        -0.44453
C         33.98631        22.44317        -0.26370
C         35.23496        24.57989        -0.49871
C         34.04162        25.27790        -0.37496
C         35.37172        27.43845        -0.19519
C         34.01957        26.78236        -0.57478
C         35.34240        28.91312        -0.56782
C         34.10104        29.70878        -0.16446
C         35.24528        31.74234        -1.08387
C         34.08806        31.10208        -0.75927
C         35.30105        33.23064        -1.35292
C         34.04609        33.95247        -0.92577
C         35.35262        36.04040        -0.71493
C         34.09321        35.31455        -0.70178
C         35.36112        37.47806        -0.61520
C         34.19341        38.15547        -0.25433
C         35.39285        40.35842        -0.64520
C         34.10422        39.58912        -0.46462
C         35.39153        41.74458        -0.21067
C         34.24516        42.26674         0.62760
C         35.47424        44.56208         0.52613
C         34.19567        43.79582         0.73001
C         35.37811        46.06847         0.46458
C         34.07261        46.71564         0.15175
C         35.28451        48.81161        -0.56333
C         34.05973        48.04826        -0.32575
C         35.26574        50.25357        -1.00945
C         33.88103        50.96245        -1.01012
C         34.97051        53.18058        -1.02893
C         33.81270        52.41435        -0.83282
C         34.88107        54.61970        -1.06311
C         37.64294        18.84921         0.05069
C         36.37391        18.20701         0.34706
C         37.64723        20.15976        -0.39831
C         36.34626        20.86597        -0.77103
C         37.67866        23.03499        -1.12978
C         36.40140        22.38279        -0.65546
C         37.72108        24.53702        -0.94443
C         36.48791        25.29078        -0.77922
C         37.73429        27.37070        -1.33706
C         36.51560        26.66525        -0.80975
C         37.76352        28.84771        -1.04749
C         36.48366        29.54600        -0.96130
C         37.77428        31.72752        -0.95645
C         36.51356        30.99334        -1.37858
C         37.78743        33.11521        -0.85080
C         36.49226        33.83913        -0.59777
C         37.80193        36.03054        -0.85194
C         36.55819        35.34025        -0.79596
C         37.80455        37.43979        -0.96489
C         36.60486        38.19412        -0.82699
C         37.88130        40.34614        -0.76611
C         36.65928        39.61299        -0.74804
C         37.90297        41.73087        -0.60339
C         36.60108        42.51877        -0.61069
C         37.90873        44.64454        -0.35543
C         36.70541        43.87401         0.03522
C         37.89029        46.07438        -0.21113
C         36.63603        46.81910         0.11303
C         37.78881        48.92615        -0.65051
C         36.52058        48.20746        -0.38757
C         37.79099        50.41651        -0.90377
C         36.46437        51.13367        -0.95880
C         37.33823        53.47086        -1.40463
C         36.27310        52.53103        -1.15125
C         37.25994        54.87019        -1.33778
C         35.96791        55.44748        -1.17093
C         40.07123        16.04700         0.89737
C         38.91973        16.74281         0.64778
C         40.11840        18.83554         0.16186
C         38.89365        18.12566         0.25259
C         40.17607        20.18397        -0.21978
C         38.93883        20.83126        -0.80524
C         40.18926        23.04460        -0.78240
C         38.89069        22.33385        -0.47990
C         40.18666        24.40506        -0.89129
C         38.94723        25.17989        -0.94914
C         40.19097        27.32741        -0.94550
C         39.01571        26.63620        -1.01162
C         40.22757        28.80688        -0.67994
C         38.94871        29.53871        -0.99553
C         40.21276        31.68628        -0.81917
C         38.99409        30.99545        -0.91964
C         40.24348        33.10593        -0.74446
C         39.01503        33.83188        -0.75793
C         40.28013        35.91918        -0.70101
C         39.04288        35.26501        -0.78258
C         40.33175        37.36707        -0.98636
C         39.07835        38.14822        -1.22071
C         40.41510        40.32326        -0.73567
C         39.14245        39.67861        -1.30038
C         40.38846        41.78866        -0.76446
C         39.13810        42.46858        -0.67644
C         40.33952        44.65653        -0.71242
C         39.07228        43.92006        -0.62944
C         40.35127        46.14392        -0.48569
C         39.05924        46.81446        -0.29644
C         40.24538        48.92387         0.02410
C         39.06254        48.25226        -0.22554
C         40.21579        50.42371         0.21289
C         39.10267        51.08060        -0.59911
C         40.54956        53.08103        -0.73933
C         39.35378        52.32857        -1.04541
C         40.47272        54.40882        -0.47321
C         38.54925        55.57651        -1.13219
C         40.42621        57.24755        -1.22804
C         39.14142        56.72369        -1.61782
C         42.63234        16.09165         1.25025
C         41.38913        16.64892         0.68195
C         42.59586        18.92233         0.77542
C         41.40111        18.11090         0.33373
C         42.61516        20.25878         0.08993
C         41.43804        20.87914        -0.28612
C         42.70594        23.05294        -0.67325
C         41.46348        22.24365        -0.95730
C         42.73402        24.40763        -0.85176
C         41.46205        25.14608        -0.75794
C         42.77126        27.32219        -1.03885
C         41.48502        26.63248        -0.74801
C         42.77343        28.76450        -1.11675
C         41.48228        29.47809        -1.20376
C         42.76449        31.65341        -0.80787
C         41.49498        30.98834        -1.06482
C         42.76288        33.05985        -0.27888
C         41.48409        33.80406        -0.61219
C         42.75866        35.86812        -0.05480
C         41.49721        35.19109        -0.55545
C         42.82513        37.34232        -0.41316
C         41.59719        38.11738        -0.72967
C         42.69630        40.02978         0.45415
C         41.52026        39.56522        -0.37996
C         42.97029        41.97435        -0.92521
C         41.62782        42.55530        -0.75462
C         42.70437        44.60143         0.15191
C         41.57464        43.90889        -0.46502
C         42.68625        46.06020         0.34616
C         41.54791        46.79500         0.09659
C         42.67181        48.91141         0.60531
C         41.48808        48.22112         0.30940
C         42.73776        50.33596         0.37170
C         41.60595        51.01828        -0.01090
C         42.91680        53.16958         0.00745
C         41.84063        52.35552        -0.66260
C         42.82796        54.58920         0.02545
C         41.63041        55.24204        -0.32691
C         42.76316        57.40201        -0.39396
C         41.53458        56.64779        -0.60786
C         43.81037        16.77763         1.17386
C         45.12103        18.79289         0.46987
C         43.89851        18.14506         0.72287
C         45.17341        20.19552         0.13494
C         43.91579        20.95852         0.13735
C         45.23064        23.02699        -0.61628
C         43.95085        22.40282        -0.24810
C         45.18767        24.42318        -0.95225
C         43.98312        25.14180        -0.92851
C         45.20783        27.29530        -1.39450
C         43.94530        26.57949        -1.13536
C         45.22542        28.80400        -1.32218
C         43.94806        29.50778        -1.12948
C         45.21593        31.66007        -0.90013
C         43.96962        30.95275        -0.95881
C         45.24926        33.09235        -0.88180
C         44.03310        33.80632        -0.62968
C         45.27446        35.91315        -0.47446
C         44.05233        35.19356        -0.47609
C         45.29346        37.35032        -0.25218
C         44.07897        38.05553        -0.07630
C         45.26366        40.18108         0.02231
C         44.05597        39.43980         0.13081
C         45.23621        41.67850         0.28107
C         44.06900        42.48737        -0.26647
C         45.23205        44.61146         0.55914
C         43.97550        43.82708         0.37160
C         45.17984        45.93779         0.88211
C         43.87816        46.65657         0.96587
C         45.20954        48.88482         0.87040
C         43.89482        48.20134         1.01102
C         45.20811        50.29921         0.59608
C         44.03515        51.01563         0.41002
C         45.29818        53.17690         0.63436
C         44.07481        52.46847         0.36140
C         45.27544        54.65125         0.80042
C         43.96517        55.41035         0.48185
C         43.89066        56.84346         0.12069
C         47.56995        18.78216         0.47987
C         46.38749        18.10943         0.57243
C         47.64573        20.18647         0.16109
C         46.38677        20.87362        -0.09931
C         47.69925        22.86349        -0.88393
C         46.39978        22.25888        -0.51830
C         47.72826        24.32347        -1.22445
C         46.45475        25.11428        -1.27696
C         47.68515        27.28835        -1.25907
C         46.49482        26.59138        -1.22512
C         47.73916        28.73977        -1.23355
C         46.48288        29.41720        -0.73337
C         47.77632        31.65800        -1.09469
C         46.49536        30.93431        -0.79177
C         47.68329        33.09743        -1.58821
C         46.47038        33.81148        -1.01777
C         47.73094        35.92046        -0.71518
C         46.50085        35.20939        -0.74333
C         47.76817        37.31845        -0.27776
C         46.50328        38.08674        -0.23260
C         47.77408        40.28649        -0.42942
C         46.49378        39.49666        -0.13618
C         47.81526        41.65289         0.30557
C         46.53617        42.42005         0.02836
C         47.76678        44.51102         0.82680
C         46.51309        43.88899         0.30360
C         47.70197        45.94455         1.24642
C         46.37864        46.72490         1.41156
C         47.66995        48.90535         0.97704
C         46.40661        48.18476         0.97133
C         47.71551        50.26738         0.84401
C         46.51490        51.00816         0.33551
C         47.76336        53.17944         0.64621
C         46.50603        52.48784         0.63804
C         47.73141        54.63068         0.62601
C         46.57540        55.33130         0.72655
C         50.08922        20.28708         0.69150
C         48.87506        20.86530         0.17072
C         50.18703        23.04750        -0.17767
C         48.98786        22.19711        -0.46770
C         50.14174        24.40380        -0.30240
C         49.02449        25.05985        -1.03590
C         50.11172        27.42848        -0.66551
C         48.97368        26.55156        -1.18921
C         50.08765        28.57240        -1.64188
C         48.92268        29.42533        -1.58085
C         50.04878        31.69825        -1.92842
C         48.96952        30.90678        -1.59066
C         50.21268        33.12498        -1.56147
C         48.99515        33.81943        -1.36759
C         50.27874        36.03267        -1.22492
C         48.95938        35.27622        -1.18333
C         50.33385        37.38699        -0.65048
C         49.09356        38.06724        -0.25223
C         50.28179        40.23142        -0.09475
C         49.08659        39.54739        -0.21103
C         50.33332        41.64309         0.18489
C         49.08522        42.45954        -0.05471
C         50.24660        44.48450         0.81036
C         49.07925        43.84131         0.57242
C         50.27957        46.00245         0.85040
C         48.98360        46.75230         1.35732
C         50.25865        48.83406         0.84018
C         48.92354        48.11193         0.64699
C         50.25351        50.24922         0.73287
C         48.99742        51.01812         1.10384
C         50.23037        53.09042         0.42605
C         48.97567        52.46193         0.64721
C         51.27423        20.94528         0.71315
C         52.23785        23.23029         1.28111
C         51.48237        22.35386         0.23603
C         52.44572        24.61015         0.69639
C         51.15659        25.34144         0.37644
C         52.70833        27.27320        -0.42558
C         51.37655        26.59386        -0.49158
C         52.84127        28.70056        -0.76289
C         52.14984        29.29454        -1.76985
C         52.89867        31.57155        -1.26947
C         52.09586        30.72634        -1.95308
C         52.81210        33.04808        -1.45876
C         51.48902        33.75163        -1.40375
C         52.82796        35.92755        -0.91481
C         51.58897        35.27512        -1.53415
C         52.76313        37.34221        -0.64316
C         51.55656        38.05011        -0.50488
C         52.71167        40.09802         0.59584
C         51.62476        39.56724        -0.37206
C         52.77757        41.62115         0.49524
C         51.54476        42.31008         0.43550
C         52.74973        44.38560         1.18145
C         51.55371        43.83261         0.34703
C         52.80022        45.91851         1.28788
C         51.48721        46.68995         1.50960
C         52.71114        48.82099         0.69237
C         51.48129        48.13769         0.97085
C         52.68016        50.22042         0.38902
C         51.45237        50.95401         0.53037
C         51.41108        52.38569         0.40215
C         54.72712        23.21837         1.62931
C         53.53344        22.63000         1.77132
C         54.92537        24.45726         0.77722
C         53.63786        25.24946         0.71534
C         54.95173        27.46142         0.73839
C         53.61752        26.75559         0.67999
C         54.96191        28.82325         0.57237
C         53.70333        29.57177         0.15268
C         55.28157        31.63919        -0.34096
C         54.02457        30.88307        -0.57124
C         55.46332        33.07631        -0.90541
C         54.10859        33.80335        -1.22695
C         55.38306        35.96598        -1.06453
C         54.03962        35.25731        -0.93063
C         55.29868        37.44605        -0.76440
C         53.99906        38.13544        -0.54199
C         55.25522        40.24834        -0.04157
C         54.08905        39.36444         0.38723
C         55.24636        41.61512         0.20898
C         54.02877        42.33835         0.53106
C         55.26800        44.51956         0.66398
C         54.05530        43.74009         0.74816
C         55.25207        45.90755         0.60704
C         54.02639        46.67490         0.91495
C         55.14248        48.80298         0.24275
C         53.96452        48.12744         0.61585
C         55.06303        50.17937        -0.10705
C         53.87382        50.86388        -0.02700
C         57.34445        24.61453         1.43011
C         56.14537        25.28387         1.15032
C         57.34918        27.39881         1.38652
C         56.14411        26.70494         1.11449
C         57.35858        28.87775         1.44572
C         56.12119        29.62251         1.02734
C         57.46144        31.84355         0.98408
C         56.20044        31.10367         0.71686
C         57.60019        33.24663         0.50206
C         56.47799        33.90039        -0.11529
C         57.65771        36.03748         0.03769
C         56.50961        35.29346        -0.30082
C         57.74790        37.43789        -0.21252
C         56.52561        38.15976        -0.37267
C         57.76229        40.24657        -0.49637
C         56.49099        39.54268        -0.26789
C         57.76571        41.74978        -0.30873
C         56.54205        42.33161         0.31209
C         57.82877        44.53330         0.28101
C         56.57759        43.81221         0.60436
C         57.84238        45.98392         0.46800
C         56.49146        46.70909         0.62591
C         57.63445        48.80224         0.03370
C         56.44142        48.13304         0.26845
C         58.51862        25.30503         1.73258
C         59.72839        27.45477         2.10788
C         58.53395        26.70848         1.72440
C         59.80857        28.80029         2.02184
C         58.69081        29.57972         1.43265
C         59.84829        31.90964         1.75877
C         58.72168        31.07958         1.28932
C         59.82373        33.25620         1.56925
C         58.74307        33.93325         0.89571
C         60.12904        35.99842         0.29671
C         58.81388        35.43055         0.78382
C         60.20173        37.29380        -0.08744
C         59.00559        38.11095        -0.19879
C         60.22253        40.28545        -0.42833
C         59.04292        39.52252        -0.40338
C         60.22258        41.69061        -0.35921
C         59.05752        42.44236        -0.18730
C         60.21148        44.67079        -0.28962
C         59.02421        43.88096        -0.03391
C         60.18784        46.03710        -0.31999
C         58.99320        46.76368        -0.00289
C         58.88233        48.14177        -0.09756
O         59.05216        30.18971         0.14348
O         26.88293        32.92624         3.39308
O         51.09952        28.67079        -2.54007
O         39.21382        54.89773        -0.12112
O         49.40588        25.72676        -2.29714
O         53.66971        33.48663        -2.59396
O         30.54191        45.34674         2.16233
O         54.51568        38.85676         1.62463
O         47.38053        31.47174         0.28493
O         48.53838        37.47846         0.99524
O         45.29452        28.14722        -2.61211
O         24.53042        42.02076         1.86148
O         33.14359        27.55155         1.55782
O         24.67440        34.41547         3.63610
O         42.54482        37.73038        -1.81352
O         36.46518        44.01162         1.46553
O         34.49824        40.04836        -1.81774
O         32.33076        49.27751        -1.81278
O         25.81661        47.51340         1.45724
O         29.43907        36.91833        -0.71981
O         57.33655        46.40102         1.78206
O         41.49223        25.89775         0.53737
O         33.62399        44.22888         2.01266
O         43.89667        22.01286         1.19942
O         52.33159        26.42440        -1.55869
O         40.51704        45.59860        -1.84786
O         38.52602        53.00224        -1.93957
O         51.63966        44.07473        -1.04305
O         56.33985        31.86528         1.95097
O         41.40207        30.28568        -2.39157
O         51.04047        31.15701        -2.75053
O         26.84110        29.59611        -1.29517
O         41.62034        17.13994        -0.71715
O         34.51131        50.51606        -2.23649
O         50.60257        25.76543         1.62716
O         36.16103        46.71563         1.51082
O         47.67499        44.86278         2.25622
O         47.09716        24.58595        -2.50706
O         29.42326        39.88541        -1.21908
O         57.60318        41.17287        -1.63865
O         55.18485        30.68422        -1.45037
O         53.72436        46.33289         2.35710
O         49.42092        36.02196        -2.43592
O         43.03190        43.94497         1.47828
O         42.71351        35.69816         1.35696
O         39.81951        37.59200        -2.36419
O         56.77751        42.81353         1.67326
O         43.67555        47.38864         2.20546
O         56.42541        29.38667         2.44910
O         28.42346        43.80804         2.33130
O         46.58685        43.35431        -1.07409
O         30.64619        27.20861         1.13140
O         48.51206        22.12063        -1.86078
O         31.18435        34.78073        -1.65753
O         33.16550        36.37725         1.22203
O         42.52736        40.71807         1.45554
O         37.90449        49.45551        -2.02565
O         27.63165        37.95246         2.44073
O         44.38453        55.13827         1.86237
O         54.65119        38.23310        -1.85004
O         51.34530        46.75344         2.93669
H         52.24449        46.92757         3.30051
O         49.19452        42.70920        -1.49141
H         50.05783        43.21573        -1.60251
O         27.75167        46.28218         2.63432
H         28.41854        45.70212         3.07419
O         42.32442        52.08873        -2.02469
H         41.62670        51.58671        -2.49725
O         47.46762        32.98589        -3.03325
H         47.52612        33.88588        -3.41908
O         29.63413        32.38788        -1.81655
H         28.95646        31.76356        -2.15362
O         58.68257        35.89949         2.17801
H         58.56810        36.87442         2.15341
O         25.56705        36.65202        -0.25896
H         24.70496        36.21999        -0.43537
O         36.17865        20.59306        -2.21214
H         36.88961        21.11202        -2.66823
O         38.71679        22.39233         0.95630
H         38.80032        23.32620         1.24409
O         56.14988        32.92815        -2.16295
H         55.46484        32.92955        -2.87317
O         31.75453        39.04732        -1.68786
H         30.83211        38.90631        -2.01172
O         43.14404        40.96885        -1.83041
H         42.30175        40.74854        -2.27729
O         36.61015        30.94666        -2.84924
H         36.49277        31.87738        -3.16478
O         40.39470        28.91671         0.77325
H         39.68532        28.39898         1.21040
O         39.11804        40.01895        -2.71610
H         39.50338        39.24454        -3.19340
O         27.76591        49.04631         2.03399
H         27.48899        48.20583         2.48163
O         49.07109        51.12190         2.57594
H         49.12472        50.20901         2.93547
O         31.38035        32.62176         1.37453
H         30.77648        32.30973         2.09361
O         52.35245        22.31678        -0.93055
H         51.85468        21.90992        -1.67129
O         52.48442        43.90695         2.52274
H         53.11034        44.36521         3.12603
O         39.07736        20.68054        -2.25870
H         39.05447        19.72049        -2.46082
O         35.63433        27.30603         1.21668
H         34.74836        27.36460         1.68983
O         46.69223        50.94467        -1.13815
H         46.95318        50.02381        -1.36279
O         48.67996        48.00742        -0.78394
H         49.39511        47.44772        -1.18071
O         36.20030        33.63653         0.81332
H         36.95945        33.96179         1.34037
O         51.37902        23.36631         2.42883
H         50.96000        24.27761         2.39340
O         33.77944        27.01399        -1.98284
H         34.48481        26.56528        -2.49554
O         37.76123        22.83223        -2.57853
H         37.19034        23.50506        -3.00657
O         30.21003        28.64989        -2.27063
H         30.66847        29.40977        -2.71264
O         34.53038        41.76671         1.97095
H         34.38941        42.51375         2.59906
O         52.91024        29.85789         1.31806
H         52.83050        29.00545         1.82889
O         55.70672        35.82646        -2.47110
H         55.13812        36.46698        -2.95600
O         26.11733        27.03299        -2.15560
H         26.20985        28.01024        -2.27265
O         37.60700        27.29039        -2.81315
H         37.31013        28.16959        -3.13644
O         49.74790        27.96751         0.61517
H         49.90868        27.22311         1.28440
O         46.16357        46.82336         2.84226
H         46.29663        45.92145         3.21309
O         31.55256        30.99362        -2.50269
H         31.05928        31.79808        -2.80477
O         47.89194        41.40784         1.71874
H         46.97793        41.37675         2.09050
O         52.93785        27.18477         1.91674
H         52.07917        26.66143         2.00525
O         31.54793        21.79172        -1.85081
H         32.38264        21.28447        -1.95061
O         52.29139        39.83975         1.93598
H         53.08697        39.39455         2.36164
O         36.36660        42.84600        -2.03744
H         36.36322        42.00264        -2.54236
O         46.41961        29.05156         0.67461
H         47.03187        29.65554         1.15623
O         27.46545        35.42416         3.60909
H         26.96191        34.79040         4.17015
O         55.17409        23.98472        -0.58391
H         54.38257        23.47079        -0.86410
O         41.53750        21.96017        -2.39713
H         40.67444        21.54089        -2.64964
O         42.78894        32.99747         1.18456
H         42.76347        33.96532         1.48958
O         49.04146        47.11707         2.74133
H         48.92879        46.29952         3.27360
O         29.09615        32.28341         2.59136
H         28.45669        32.14430         3.33343
O         39.89696        50.65197         1.62504
H         40.57868        50.19962         2.16649
O         35.51583        33.46690        -2.77588
H         34.67039        33.29483        -3.24193
O         52.03414        40.04901        -1.67917
H         51.42436        39.69378        -2.35912
O         42.35967        19.22165         2.19294
H         42.95795        19.95733         2.44910
O         45.09082        41.75048         1.74115
H         44.15654        41.48773         1.96043
O         47.72581        40.51000        -1.86138
H         48.22010        41.34613        -2.06563
O         34.23382        29.93558         1.26685
H         33.82886        29.13487         1.71270
O         31.89103        50.70494         1.43682
H         31.14473        51.02168         1.98915
O         51.84131        35.48792        -2.95703
H         50.96580        35.45074        -3.40886
O         50.47562        46.30231        -0.56613
H         50.95865        45.51901        -0.99933
H         22.26229        26.60034         1.24343
H         22.41360        28.89123         2.10118
H         22.43425        30.69024         2.42099
H         22.55456        32.93464         3.45527
H         22.47519        35.66566         3.16284
H         22.17981        37.77218         1.87137
H         22.11341        39.32519         0.42318
H         22.04683        41.65763        -0.24590
H         22.33711        43.56975        -1.12416
H         22.57818        45.92467        -1.86337
H         25.28130        23.48954        -0.59413
H         23.24800        24.68937         0.06643
H         25.73560        49.41167        -1.28687
H         23.89427        47.97829        -2.03508
H         26.92718        22.56115        -0.80644
H         26.84233        50.70002        -0.13461
H         29.07419        21.36969        -0.68894
H         28.96008        51.78970        -0.67200
H         32.77337        19.57295         1.21054
H         30.63805        20.75739         0.87508
H         32.44583        54.11506        -0.58578
H         30.49302        52.85387        -0.01061
H         34.27393        18.37775         0.60766
H         33.89409        55.09013        -0.98662
H         36.36042        17.15717         0.66535
H         35.84790        56.53888        -1.14339
H         40.01507        15.02410         1.29861
H         37.96712        16.21910         0.80323
H         40.58958        58.29206        -1.54431
H         38.57645        57.33124        -2.33999
H         42.61214        15.07108         1.65982
H         42.75631        58.47643        -0.63384
H         44.72942        16.26746         1.49812
H         44.76513        57.47878         0.32362
H         48.50297        18.21590         0.60291
H         46.40377        17.03001         0.77290
H         48.67968        55.18433         0.59593
H         46.59940        56.42829         0.79176
H         50.05400        19.26582         1.09750
H         50.26940        54.17022         0.22594
H         52.16235        20.42048         1.09606
H         52.34325        52.94129         0.23578
H         55.61547        22.73999         2.07015
H         53.45066        21.71660         2.38122
H         55.95973        50.71611        -0.44103
H         53.85903        51.92521        -0.30616
H         57.36894        23.51641         1.41324
H         57.62766        49.88566        -0.14420
H         59.43472        24.75072         1.98161
H         60.58595        26.87839         2.48619
H         60.73769        29.32103         2.29439
H         60.71149        31.43242         2.24382
H         60.66333        33.86704         1.93046
H         61.04231        35.39251         0.38560
H         61.17449        37.73470        -0.34868
H         61.19512        39.77371        -0.44185
H         61.19904        42.19415        -0.34314
H         61.14764        44.15039        -0.53080
H         61.09463        46.60034        -0.58352
H         59.76468        48.73542        -0.37604
