         671
 CSIRO Nanostructure Databank - Neutral Graphene Oxide Data Set
C          5.98871        31.95810        -1.13477
C          5.89539        33.22271        -0.69849
C          8.30123        27.43682        -0.75453
C          8.07696        28.78648        -1.13244
C          7.07662        29.69969        -0.86559
C          8.45002        31.78668        -0.47952
C          7.27374        31.16520        -1.25799
C          8.31100        33.14471         0.12621
C          7.02978        33.92846        -0.05125
C          8.27614        36.08826         0.19857
C          7.09760        35.40032        -0.03385
C          8.30866        37.51774         0.39268
C         10.93855        23.30272        -1.12580
C         10.89429        24.73031        -0.95453
C          9.67434        25.42876        -0.89724
C         10.84584        27.55893        -0.50893
C          9.60896        26.84075        -0.76974
C         10.89044        28.97999        -0.23639
C          9.96929        29.83107        -0.81469
C         10.71588        31.76266         0.56584
C          9.66742        31.16111        -0.34923
C         10.77639        33.24857         0.36354
C          9.55467        33.93618         0.29473
C         10.75203        36.04229         0.46938
C          9.53530        35.34761         0.30166
C         10.80439        37.53347         0.26523
C          9.49515        38.23089         0.55956
C         10.75371        40.34034         0.97524
C          9.54131        39.62276         0.82480
C         10.75918        41.74773         1.15478
C         13.39309        19.01129        -1.18596
C         13.33313        20.40617        -0.98774
C         12.15589        21.14609        -1.18201
C         13.41418        23.29984        -1.11877
C         12.12279        22.56934        -1.11522
C         13.39361        24.80189        -0.93243
C         12.10084        25.46906        -0.74584
C         13.31760        27.52416        -0.05700
C         12.06743        26.83058        -0.40385
C         13.29777        28.83586         0.34837
C         11.99213        29.54625         0.63759
C         13.22007        31.74958         0.45205
C         12.05423        31.06159         0.47535
C         13.27810        33.22728         0.12845
C         11.98554        33.93861         0.46729
C         13.18705        35.97431         1.18371
C         11.95526        35.33739         0.60285
C         13.10378        37.47129         1.26197
C         11.98653        38.17385         0.94918
C         13.24068        40.28739         1.17283
C         12.01582        39.62121         1.05399
C         13.22309        41.73438         0.75613
C         11.96340        42.48184         1.13573
C         13.22367        44.61996         1.09544
C         12.00512        43.87669         1.22375
C         13.24411        46.01465         1.09276
C         15.90061        14.77674        -1.43251
C         15.86719        16.13792        -1.35383
C         14.63191        16.87999        -1.31291
C         15.79570        18.88931        -0.41984
C         14.57307        18.23508        -1.02032
C         15.83289        20.37775        -0.84890
C         14.55017        21.11210        -0.41489
C         15.84397        23.24255        -0.63179
C         14.65725        22.58185        -0.78443
C         15.93659        24.76299        -0.73441
C         14.61916        25.47461        -0.47850
C         15.85147        27.49798         0.18525
C         14.58765        26.79100        -0.09911
C         15.83943        28.90664         0.41593
C         14.54410        29.55827         0.64669
C         15.78595        31.79091         0.33319
C         14.50838        31.05970         0.69444
C         15.71754        33.26076         0.70400
C         14.54179        33.93106         0.59673
C         15.64320        36.10725         1.27419
C         14.48778        35.45855         0.54330
C         15.42945        37.24918         1.96801
C         14.23856        38.16197         1.97326
C         15.71357        40.29212         1.37524
C         14.47486        39.60204         1.44764
C         15.70408        41.74067         1.07174
C         14.49365        42.47262         1.04860
C         15.69148        44.59767         0.83391
C         14.47962        43.88399         0.99183
C         15.71287        46.05006         0.82774
C         14.45934        46.78104         0.99085
C         15.68032        48.96180         0.96410
C         14.44417        48.17264         0.94882
C         15.72313        50.41729         0.65895
C         18.32994        10.43776        -1.35241
C         18.33432        11.85819        -1.26784
C         17.16400        12.58940        -1.50587
C         18.35826        14.75521        -1.06645
C         17.19345        14.06655        -1.73342
C         18.38659        16.11894        -1.02806
C         17.17471        16.91577        -1.50677
C         18.30659        18.85011        -0.29799
C         17.09737        18.22227        -0.77452
C         18.28295        20.34561        -0.03710
C         17.06036        21.11532        -0.36208
C         18.25109        23.18936         0.23208
C         17.06236        22.48262        -0.33208
C         18.38148        24.67309        -0.01746
C         17.00470        25.29921         0.24915
C         18.37183        27.50480         0.25754
C         17.04636        26.80060         0.23583
C         18.28741        28.92863         0.73345
C         17.04464        29.63026         0.64849
C         18.21866        31.74698         1.05219
C         17.02592        31.05345         0.79709
C         18.25390        33.19106         1.09643
C         17.01467        33.98308         0.84799
C         18.26770        36.11405         1.63101
C         16.98312        35.45931         1.15109
C         18.42722        37.59747         1.47731
C         17.31512        38.38935         1.91895
C         18.30858        40.45747         1.27759
C         17.02207        39.67517         1.48288
C         18.13552        41.69000         0.39719
C         16.89814        42.45750         0.79463
C         18.11868        44.56046         0.26102
C         16.88012        43.85214         0.64390
C         18.14266        46.05625         0.23108
C         16.89559        46.73732         0.60885
C         18.16937        48.88050         0.20196
C         16.97045        48.18754         0.77240
C         18.15382        50.37296         0.10932
C         16.86932        51.08723         0.38255
C         18.17723        53.23735        -0.05877
C         16.82219        52.58817         0.17233
C         18.22219        54.48712        -0.57213
C         20.68634         6.04677        -1.06533
C         20.71046         7.55891        -1.10160
C         19.53358         8.27059        -1.27794
C         20.76002        10.38701        -1.03715
C         19.51937         9.69601        -1.21895
C         20.76170        11.81791        -0.84486
C         19.57256        12.53354        -0.92844
C         20.79786        14.69788        -0.51593
C         19.47680        13.96560        -0.43448
C         20.85189        16.05914        -0.60859
C         19.61303        16.81622        -0.68521
C         20.82354        18.88673        -0.08736
C         19.62157        18.18757        -0.43562
C         20.81279        20.29034         0.17902
C         19.58964        21.08888        -0.18790
C         20.74416        23.14469         0.80861
C         19.50024        22.42776         0.50748
C         20.71462        24.55854         1.03317
C         19.51720        25.32889         0.74271
C         20.63902        27.42015         1.38194
C         19.51143        26.71701         0.87483
C         20.68610        28.84561         1.36456
C         19.46178        29.59291         1.10032
C         20.66476        31.70798         1.44381
C         19.44488        31.01999         1.24655
C         20.69861        33.13728         1.45383
C         19.45604        33.84478         1.29703
C         20.76944        35.99219         1.16920
C         19.50447        35.31098         1.47393
C         20.74424        37.32526         0.44638
C         19.52174        38.18422         0.85631
C         20.42776        40.36427         0.07858
C         19.45281        39.61959         0.70778
C         20.65627        41.76690         0.34607
C         19.41468        42.49905         0.46303
C         20.63675        44.60237         0.68146
C         19.39593        43.85751         0.45669
C         20.66178        46.05459         0.41448
C         19.44448        46.76969         0.34575
C         20.67809        48.89909         0.24862
C         19.46729        48.17891         0.29451
C         20.66189        50.35725         0.24640
C         19.45521        51.06105         0.23762
C         20.75071        53.26289         0.29812
C         19.41722        52.52727         0.36731
C         20.77125        54.66520        -0.24287
C         19.46648        55.27687        -0.69428
C         20.71126        56.95065        -2.04752
C         19.52847        56.37879        -1.66907
C         20.63309        58.18107        -2.94413
C         23.22583         3.50587        -2.34950
C         22.01100         4.13205        -2.04686
C         23.20384         6.10360        -1.28512
C         21.99606         5.42635        -1.50060
C         23.19300         7.45742        -0.61602
C         21.94287         8.24793        -0.93131
C         23.25859        10.40247        -1.04145
C         21.96341         9.64470        -0.94141
C         23.19814        11.77243        -0.41994
C         22.01836        12.45972        -0.43350
C         23.28609        14.64564        -0.01264
C         21.99546        13.91547        -0.14383
C         23.46109        16.02575        -0.64063
C         22.13698        16.85511        -0.79581
C         23.20616        18.77502         0.47577
C         22.08873        18.18653        -0.07706
C         23.10416        20.14320         1.00876
C         21.94234        20.96044         0.64332
C         23.12876        23.05219         1.32666
C         21.95187        22.39898         0.93965
C         23.08141        24.42465         1.96677
C         21.85927        25.20244         1.51595
C         23.14231        27.35770         2.02369
C         21.81725        26.63800         1.80140
C         23.17414        28.88324         2.05950
C         21.88661        29.55362         1.59981
C         23.11845        31.69765         1.53601
C         21.89053        30.97346         1.55508
C         23.15591        33.10768         1.57452
C         21.92210        33.83861         1.57346
C         23.20849        35.97559         1.41240
C         21.95611        35.28832         1.38723
C         23.24046        37.36277         1.15324
C         22.09069        38.02018         0.62472
C         23.31679        40.18348         0.52960
C         22.28163        39.30262         0.12865
C         23.22294        41.65639         0.43977
C         21.92099        42.35720         0.42291
C         23.16188        44.59221         0.47687
C         21.93613        43.81469         0.72330
C         23.12771        45.95276         0.28186
C         21.89367        46.72026         0.26305
C         23.13762        48.83987         0.02799
C         21.91477        48.16006         0.16619
C         23.19748        50.28378         0.30660
C         21.93482        51.07704         0.24352
C         23.25245        53.21372         0.06312
C         21.98209        52.45394         0.19644
C         23.22497        54.54128        -0.60167
C         22.03363        55.19261        -0.82935
C         23.20747        56.95177        -2.09696
C         21.99113        56.40513        -1.62792
C         23.10075        57.98459        -3.18403
C         21.94772        58.92845        -2.99634
C         23.23736        61.08369        -3.03998
C         22.02130        60.28090        -2.93945
C         24.43133         4.15137        -2.09794
C         25.67952         6.14365        -1.31844
C         24.44327         5.46247        -1.56098
C         25.72139         7.50424        -0.97575
C         24.47725         8.23437        -0.81001
C         25.73513        10.33524        -0.62277
C         24.49323         9.60562        -0.71427
C         25.73953        11.69918        -0.33430
C         24.47120        12.37359         0.13885
C         25.73601        14.53352         0.07275
C         24.53914        13.86739        -0.01956
C         25.75827        15.98375         0.30954
C         24.63595        16.71784         0.05554
C         25.60229        18.66979         1.29206
C         24.60467        18.21492         0.21864
C         25.67669        20.17974         1.26747
C         24.42010        20.88952         1.34885
C         25.68406        23.04820         1.36504
C         24.41228        22.35959         0.97365
C         25.65145        24.48083         1.70209
C         24.36587        25.22687         1.74809
C         25.58520        27.32395         1.13940
C         24.38435        26.59208         1.73545
C         25.59580        28.82195         1.29962
C         24.40934        29.49546         1.43402
C         25.64261        31.70397         1.09380
C         24.33893        30.94401         1.21422
C         25.62611        33.13787         1.43489
C         24.42918        33.80629         1.59435
C         25.71825        35.99556         1.52978
C         24.44102        35.27983         1.92777
C         25.71302        37.40777         1.40082
C         24.46227        38.11482         1.23925
C         25.68991        40.27240         1.28206
C         24.45046        39.51739         1.05068
C         25.68007        41.76062         0.95927
C         24.39279        42.39190         0.58282
C         25.67680        44.54485         0.14927
C         24.45779        43.89111         0.76238
C         25.67186        45.88895        -0.11911
C         24.37160        46.61340        -0.17707
C         25.62094        48.83822        -0.72196
C         24.33895        48.09575        -0.39472
C         25.82786        50.14487         0.08300
C         24.54109        50.97246         0.28728
C         25.64843        53.02804        -0.80886
C         24.55614        52.46280         0.03123
C         25.72100        54.38263        -1.12716
C         24.54580        55.27336        -0.73989
C         25.68485        57.18092        -1.83958
C         24.45860        56.48916        -1.63109
C         25.69961        58.57549        -2.25725
C         24.71398        59.46581        -1.90684
C         24.47671        60.72531        -2.62091
C         26.94639         8.22086        -0.97765
C         28.18859        10.35039        -0.85773
C         26.98215         9.61732        -0.80618
C         28.20015        11.75361        -0.69355
C         26.96317        12.44294        -0.35375
C         28.20961        14.59126        -0.13387
C         26.98092        13.82254        -0.08946
C         28.28318        15.88255         0.35255
C         27.02291        16.49830         1.01979
C         28.02208        18.79614         1.51038
C         26.95341        18.01510         1.15014
C         28.10267        20.21068         1.34064
C         26.88473        20.90258         1.20313
C         28.16102        23.04675         1.22243
C         26.87311        22.36242         1.28387
C         28.12628        24.53587         0.95289
C         26.94456        25.22599         1.58665
C         28.11460        27.36917         1.27529
C         26.92437        26.69218         1.40652
C         28.11797        28.82002         1.21091
C         26.87388        29.52337         1.17911
C         28.10426        31.64644         1.27519
C         26.88773        30.93582         1.20616
C         28.07395        33.10241         1.25055
C         26.90215        33.82303         1.41308
C         28.14067        35.97606         1.13745
C         26.92048        35.27844         1.38376
C         28.14082        37.38356         1.10344
C         26.94527        38.11105         1.22704
C         28.13069        40.29775         1.04900
C         26.96174        39.56230         1.16555
C         28.14869        41.71793         0.77491
C         26.94970        42.39664         0.60024
C         28.18998        44.50020         0.00558
C         26.90910        43.71483        -0.12881
C         28.16538        45.90311        -0.18542
C         26.90971        46.62511        -0.33744
C         28.11720        48.75659        -0.64285
C         26.90670        48.02023        -0.55638
C         28.11892        50.15374        -0.94176
C         26.89107        50.85829        -0.72389
C         28.45832        53.10936        -1.70970
C         26.62435        52.09884        -1.27131
C         28.25823        54.45997        -1.46144
C         26.95205        55.07022        -1.50129
C         26.89573        56.46883        -1.69308
C         29.36677        12.50708        -0.90021
C         30.46245        14.67769        -1.16457
C         29.39125        13.92392        -0.72795
C         30.37459        16.16780        -0.98901
C         29.74269        16.41990         0.38882
C         30.58899        18.80020         0.08158
C         29.87982        17.86243         0.76065
C         30.41788        20.31039         0.18321
C         29.47144        20.87180         1.30639
C         30.55428        23.14765         0.64726
C         29.33597        22.37044         1.09443
C         30.67201        24.47690         1.43517
C         29.40535        25.27204         1.28804
C         30.65076        27.39473         1.32396
C         29.39991        26.64689         1.32216
C         30.64006        28.79953         1.32072
C         29.35453        29.52205         1.29768
C         30.55239        31.74399         1.61840
C         29.32233        30.92905         1.33349
C         30.55588        32.98685         0.72060
C         29.28841        33.78606         0.75847
C         30.57751        35.93214         0.74883
C         29.36974        35.26259         0.82409
C         30.66308        37.36702         1.23516
C         29.41127        38.10980         0.73360
C         30.69356        40.29219         1.01362
C         29.40638        39.56121         1.15642
C         30.65047        41.72901         0.64482
C         29.43024        42.39616         0.52795
C         30.64805        44.52051         0.08634
C         29.41222        43.81079         0.20218
C         30.62380        45.93628        -0.12617
C         29.39862        46.61383        -0.21182
C         30.62739        48.75114        -0.73759
C         29.38737        48.11965        -0.16419
C         30.59647        50.06003        -1.13734
C         29.37837        50.84413        -1.20352
C         29.53165        52.22658        -1.38983
C         31.64481        16.95689        -1.17586
C         32.87951        19.06448        -0.80655
C         31.68584        18.26644        -0.75113
C         32.96842        20.32013        -0.20727
C         31.76697        21.01015         0.27133
C         33.12414        23.02992         0.90854
C         31.81860        22.32515         0.62126
C         33.08235        24.53345         0.53726
C         31.89469        25.28196         1.08522
C         33.14715        27.42476         1.02782
C         31.90593        26.67428         1.17639
C         33.14152        28.84290         1.13373
C         31.88863        29.51318         1.34249
C         33.13787        31.73368         1.25964
C         31.86356        30.96079         1.58771
C         33.09568        33.07919         0.71181
C         31.82612        33.70963         0.43944
C         33.11878        35.94824         0.43805
C         31.81174        35.25544         0.36815
C         33.15326        37.36189         0.57895
C         31.92905        38.11238         0.82535
C         33.17325        40.25477         0.67226
C         31.91913        39.48722         0.76700
C         33.12448        41.69267         0.35022
C         31.89849        42.40045         0.36421
C         33.13918        44.48898        -0.04429
C         31.89127        43.81214         0.13734
C         33.19896        45.99671        -0.09938
C         31.86722        46.67473        -0.30766
C         31.85017        47.99584        -0.67068
C         34.19487        21.04769        -0.22967
C         35.46780        23.11673        -0.01429
C         34.30100        22.36523         0.22145
C         35.54440        24.51014         0.20570
C         34.40081        25.21091         0.90737
C         35.56140        27.38016         0.48803
C         34.37146        26.71830         0.73060
C         35.74616        28.81144         0.93533
C         34.40739        29.58955         1.01323
C         35.53174        31.86159         1.03649
C         34.38282        30.97018         1.04999
C         35.57889        33.09867         0.45258
C         34.27836        33.70732         0.00246
C         35.52544        35.89624        -0.00305
C         34.29765        35.22010         0.21140
C         35.51898        37.30933        -0.08691
C         34.37161        38.02719         0.28935
C         35.63485        40.21644        -0.09697
C         34.45741        39.49278         0.43984
C         35.56475        41.64115        -0.12487
C         34.35443        42.35554         0.05453
C         34.32157        43.77769        -0.10607
C         36.64006        25.24469        -0.22069
C         37.75461        27.35112        -0.68123
C         36.68875        26.66870        -0.10018
C         37.83147        28.78288        -0.67912
C         36.87705        29.49287         0.16035
C         38.07290        31.62305        -0.30878
C         37.24783        30.78391         0.48016
C         38.01454        33.02688        -0.25816
C         36.82423        33.78007         0.10695
C         37.96491        35.88385        -0.56115
C         36.76819        35.15380        -0.17297
C         37.94744        37.25565        -0.71627
C         36.65393        38.01751        -0.78749
C         36.73436        39.49714        -0.51955
C         38.87445        29.46307        -1.28834
C         40.23564        31.64107        -1.48430
C         38.88582        30.96310        -1.40185
C         40.32120        32.96333        -1.22596
C         39.15743        33.74655        -0.79925
C         39.16262        35.12112        -0.83436
O         18.89056        35.62323         2.85133
O         22.37777        26.89067         3.18905
O         13.56590        24.19474        -2.28585
O         20.08795        55.63243         0.60532
O         23.95030        50.62912         1.57181
O         18.03569        45.27136        -1.03090
O         18.18685        19.47561         1.11167
O         24.18038        53.21737         1.22777
O         21.25984        44.21550         1.96948
O         29.71042        33.02104        -0.45617
O         17.98928        49.52410        -1.10635
O         29.19741        18.16708         1.93209
O         30.13936        39.94401         2.36576
O         25.63586        41.26074         2.35601
O         22.49082        14.38980         1.19522
O         36.69635        31.36154         1.64136
O         18.50253        22.66355         1.58259
O         27.38504        52.48154        -2.38256
O         31.73725        34.43083        -0.84720
O          9.19302        29.31265        -1.85908
O         32.71541        31.45815         2.68119
O         26.51650        24.76859         2.89359
O         21.32628        39.75595        -0.79314
O         23.53968        20.41226         2.40699
O         16.45447        37.71872         2.79913
O         24.08774        47.16453        -1.53231
O         14.52487        30.31934         1.94772
O         16.58458        48.64851         2.10628
O         23.76083        57.94467        -4.21029
O         17.17955        34.98951        -0.24421
O          7.37323        33.27940         1.24192
O         34.09788        39.94456         1.78821
O         20.05191        53.08502         1.56618
O         21.97720        17.18807        -2.26726
O         24.86872        31.35411        -0.10469
O         26.97662        15.96250         2.37227
H         26.26707        16.45678         2.84499
O         36.28435        37.94517        -2.23290
H         36.21041        36.99332        -2.46252
O         27.92092        24.70367        -0.48567
H         28.74089        24.35726        -0.92245
O         13.33796        33.30803        -1.33409
H         13.53971        34.25083        -1.55338
O         23.91303        15.67364        -1.97321
H         24.03010        16.49917        -2.48986
O         23.86537        59.19684        -0.87787
H         23.24816        59.94456        -0.75372
O         24.37528        35.35719         3.39802
H         24.38791        36.30593         3.64644
O         14.51709        35.81976        -0.85830
H         15.43969        35.64828        -1.16417
O         24.39806        12.14518         1.59245
H         23.72800        12.77891         1.94047
O         32.95365        24.61097        -0.90626
H         32.05346        24.27495        -1.14285
O         34.15275        46.43319        -1.07825
H         33.84104        46.14343        -1.95983
O         30.36214        32.26408         2.96211
H         31.22872        32.18244         3.43025
O         18.68005        40.95803         2.58950
H         18.75106        40.19805         3.20458
O         24.44209        22.31990        -0.51082
H         24.71279        23.20683        -0.83227
O         30.16019        20.64892         2.55611
H         29.61944        21.03119         3.27840
O         18.74064        24.79384        -1.41483
H         18.74591        25.76065        -1.63501
O         15.84706        31.74911        -1.12827
H         16.48543        32.43134        -1.42617
O         29.41392        48.45640         1.28365
H         28.50701        48.73177         1.54769
O         19.55703        59.02434        -2.53872
H         19.61358        59.15749        -1.57055
O         22.82403        18.32033        -2.60463
H         22.18290        19.07269        -2.64206
O         20.57731        37.02148        -0.97292
H         20.67140        37.87491        -1.45458
O         36.19759        28.70390         2.32589
H         36.39350        29.62300         2.62531
O         13.84428        38.32640         3.37167
H         14.67574        38.44201         3.88315
O         26.79672        43.35025        -1.56139
H         26.80864        44.18481        -2.07764
O         14.41091        21.11517         1.02341
H         14.59494        20.19212         1.33836
O         30.44203        15.63913         1.38392
H         30.02925        15.83941         2.25124
O         11.69183        29.26528         2.04718
H         12.49920        29.51435         2.55397
O         38.19411        31.26508        -2.66960
H         38.08396        32.23939        -2.71518
O         23.42493        10.67424        -2.48977
H         22.62682        11.16038        -2.78924
O         13.18093        41.67999        -0.72608
H         13.17996        42.60681        -1.04904
O         25.38022        27.12113        -0.31562
H         26.09323        27.60472        -0.78637
O         26.35360        49.80255         1.37958
H         25.62546        49.94892         2.03126
O         19.14950        13.86711         0.99441
H         19.96723        13.60603         1.47006
O         11.02535        37.71096        -1.17546
H         11.18709        38.66595        -1.33152
O         16.58628        24.92462         1.58720
H         17.15083        24.19769         1.93061
O         34.16123        33.47014        -1.43402
H         33.27308        33.81689        -1.69762
O         25.10006        18.21908         2.59077
H         24.42145        18.88148         2.88441
O         30.81580        24.11022         2.84255
H         31.73714        23.75798         2.95691
O          7.60132        31.25141        -2.67016
H          8.33705        30.61365        -2.83481
O         24.83954        55.78864         0.60349
H         24.74398        55.02180         1.22156
O         29.46905        38.15455        -0.72052
H         29.40981        37.23404        -1.05593
O         22.94846        24.20795         3.41124
H         22.78797        25.09790         3.80868
O         30.34116        23.48846        -0.77673
H         30.14296        22.61902        -1.21730
O         29.79677        20.73297        -1.07751
H         30.14165        20.15305        -1.79007
O         29.40387        16.68330        -1.96418
H         29.72406        16.43896        -2.85758
O         18.75641        27.59352        -1.19062
H         18.05964        28.11731        -1.64368
O         15.88829        20.36528        -2.29210
H         15.98100        21.28836        -2.60892
O         13.26633        35.48917         2.56009
H         12.59964        35.97002         3.09487
O         10.26024        31.58072         1.93787
H         10.51250        30.66473         2.21751
O         25.04511        18.81357        -1.02758
H         24.36716        18.61109        -1.71948
O         19.69686        21.39264        -1.61354
H         20.32725        22.13491        -1.72998
O         17.94243        41.22863        -0.96389
H         17.73466        42.00587        -1.52409
O         17.34786        17.14348        -2.93691
H         17.34099        16.24807        -3.35632
O         25.49709        49.24861        -2.10446
H         25.11771        48.47921        -2.58901
O         30.64382        37.30685         2.67845
H         30.63559        38.24077         3.00485
O         34.59625        25.05882         2.33777
H         35.37626        25.59457         2.59439
O         24.66608        44.07234         2.21101
H         23.93272        43.61924         2.68084
O         19.59309         5.53396        -1.83153
H         19.73202         5.78102        -2.76842
O         33.28791        22.91602         2.35322
H         33.35513        21.96250         2.57159
O         16.28689        25.11590        -2.09441
H         15.51173        24.86549        -2.65032
O         17.41003        14.25587        -3.20442
H         18.20012        13.72833        -3.45162
O         15.62624        18.79081         1.02662
H         16.50186        19.02252         1.43707
O         23.31298        29.26323         3.46634
H         22.77000        28.62176         3.98185
O         23.11968         7.19112         0.83177
H         23.93345         6.70316         1.08013
O         15.92608        52.89750        -0.90404
H         16.19572        52.37554        -1.68755
H          5.09977        31.48097        -1.57614
H          4.92969        33.75085        -0.74979
H          7.44410        26.79268        -0.50613
H          6.18638        29.40259        -0.29344
H          6.16729        35.96177        -0.21494
H          7.34714        38.04982         0.47494
H          9.98077        22.76338        -1.18744
H          8.73600        24.86918        -1.02837
H          8.59294        40.17929         0.89564
H          9.80194        42.28019         1.26657
H         12.49282        18.50191        -1.56736
H         11.21733        20.61208        -1.40156
H         11.06616        44.43212         1.37457
H         12.29360        46.56110         1.19121
H         14.97816        14.18583        -1.32493
H         13.71000        16.35619        -1.61422
H         13.48092        48.70285         0.89927
H         14.78261        50.98460         0.74384
H         17.38066         9.91558        -1.54199
H         16.24015        12.04548        -1.75551
H         16.38184        53.06052         1.09197
H         17.28159        54.95919        -0.89812
H         20.50068         5.73271        -0.00061
H         18.58981         7.72621        -1.42934
H         18.58339        56.79202        -2.05327
H         20.39849        57.84070        -3.99198
H         23.22541         2.49107        -2.77148
H         21.05816         3.61184        -2.21874
H         23.11628        62.06300        -3.53039
H         21.06897        60.83746        -2.88363
H         25.38544         3.65170        -2.31869
H         26.62188         5.61244        -1.52000
H         26.44809        58.89357        -2.99622
H         25.33865        61.36009        -2.87765
H         27.88451         7.67420        -1.15776
H         29.13522         9.82201        -1.04715
H         29.11048        55.10153        -1.19082
H         27.84179        57.00720        -1.85408
H         30.27827        12.00229        -1.25490
H         31.32231        14.20511        -1.66333
H         31.53476        50.55090        -1.44041
H         30.54178        52.64887        -1.26885
H         32.51003        16.50759        -1.68594
H         33.77936        18.62835        -1.26610
H         33.59867        46.34711         0.89484
H         32.80050        48.50332        -0.89673
H         35.06986        20.57773        -0.70516
H         36.32333        22.61701        -0.49698
H         36.46289        42.20488        -0.42013
H         35.26358        44.31899        -0.27803
H         37.47752        24.73278        -0.71951
H         38.54474        26.77810        -1.18896
H         38.86787        37.77137        -1.03201
H         37.62006        40.03304        -0.89561
H         39.64407        28.89284        -1.82982
H         41.11082        31.07853        -1.84240
H         41.27373        33.49879        -1.36122
H         40.06263        35.65970        -1.16786
