         260
 CSIRO Nanostructure Databank - Neutral Graphene Oxide Data Set
C         30.46896        31.90860         0.04868
C         30.60464        33.02304         0.65808
C         30.64423        35.99732         1.76120
C         30.48636        37.18727         1.50395
C         30.65499        40.30949         2.01273
C         30.82740        41.40235         2.55956
C         32.61125        29.04707        -0.57306
C         31.52266        29.57079        -0.31476
C         32.83416        31.45404         0.59151
C         31.38560        30.79320         0.55705
C         32.91453        32.89014         1.04003
C         31.66922        33.69850         1.22807
C         32.79881        35.87101         0.76217
C         31.81037        35.08389         1.78314
C         32.63331        37.31758         0.36877
C         31.40255        38.10762         0.81022
C         32.81044        40.34050         0.92006
C         31.51386        39.56620         1.09650
C         32.93893        41.64059         1.31482
C         31.71447        42.45987         1.96836
C         33.44760        44.00252         2.69351
C         32.36000        43.46324         2.89064
C         35.22032        27.54591        -1.47497
C         35.11391        28.77194        -0.74629
C         33.97702        29.43625        -0.37638
C         35.32943        31.44688         0.31229
C         33.98175        30.77933         0.24644
C         35.24274        32.91944        -0.00507
C         34.15894        33.68135         0.68895
C         35.23150        35.93447        -0.09097
C         34.14081        35.19735         0.62059
C         35.05142        37.37080        -0.55675
C         33.81021        38.14898        -0.12000
C         35.22013        40.34072         0.02769
C         33.89811        39.65702         0.14515
C         35.37515        41.66614         0.43651
C         34.19945        42.38446         1.00089
C         35.88383        44.17392         1.84524
C         34.50990        43.72835         1.73024
C         36.38063        45.13936         2.74937
C         37.59393        26.84125        -1.52245
C         36.18210        26.97074        -2.00194
C         37.75725        28.47409        -0.76100
C         36.50228        29.24823        -0.39465
C         37.72615        31.46023        -0.67351
C         36.58782        30.72355        -0.09392
C         37.76325        32.94236        -0.34581
C         36.41535        33.63863        -0.56351
C         37.57547        35.89578        -1.14555
C         36.35232        35.14703        -0.72535
C         37.59588        37.40609        -1.19402
C         36.27854        38.14340        -0.96881
C         37.65123        40.25211        -0.49170
C         36.28798        39.69020        -0.87263
C         37.69529        41.73722        -0.42255
C         36.62052        42.41640         0.27021
C         38.23786        44.24531         1.11689
C         36.91137        43.62940         1.00534
C         38.71487        44.88495         2.43382
C         37.48917        45.71668         2.89879
C         40.87868        25.33376        -1.97098
C         39.73112        25.76835        -2.28186
C         40.52885        27.19343         0.03215
C         38.54415        26.37610        -2.59630
C         40.43102        28.61981        -0.45914
C         39.07867        29.23549        -0.84200
C         40.34873        31.49806        -0.71659
C         39.03958        30.73368        -0.64026
C         40.24899        32.97082        -0.95459
C         38.92333        33.65173        -1.00713
C         40.12868        35.92175        -0.82666
C         38.89051        35.14158        -1.21286
C         40.16643        37.40546        -0.86778
C         38.89903        38.12445        -1.24128
C         40.16995        40.27831        -1.17935
C         38.91497        39.54902        -0.81724
C         40.12535        41.76642        -1.22426
C         38.79026        42.37943        -0.94447
C         40.48033        44.62532         0.04403
C         39.13554        44.26157         0.03795
C         41.00633        45.41176         1.16568
C         40.04505        45.64446         2.33042
C         41.43982        47.60712         2.70303
C         40.36885        46.97150         2.87157
C         43.35148        25.03267        -1.17612
C         41.97665        25.44809        -1.14691
C         42.96102        27.32290         0.19342
C         41.87853        26.59875        -0.24245
C         42.68199        28.74376         0.72768
C         41.61071        29.41849        -0.15314
C         42.78764        31.61072         0.01384
C         41.73128        30.79419        -0.80858
C         43.15753        32.93303        -0.61066
C         41.29252        33.77677        -1.28523
C         42.73216        35.88667        -1.11288
C         41.42968        35.15013        -0.66409
C         42.66770        37.40555        -0.89351
C         41.49004        38.11169        -0.89678
C         42.63146        40.29068        -1.14714
C         41.47782        39.57592        -1.02142
C         42.66278        41.78237        -1.49759
C         41.45126        42.45248        -0.79104
C         42.74608        44.70543        -1.03991
C         41.46136        43.97406        -0.87787
C         42.76286        46.05949        -0.40387
C         42.08796        46.37386         0.77410
C         43.65136        48.07705         1.37778
C         42.38873        47.51178         1.64496
C         44.29982        25.42233        -0.46702
C         45.45795        27.34970         0.98869
C         44.29851        26.63252         0.36759
C         45.34488        28.87765         1.14164
C         44.01532        29.53943         0.87597
C         45.15226        31.80956         0.89789
C         44.13859        30.89491         0.17687
C         45.03075        33.32003         0.88373
C         43.98119        33.83803        -0.02105
C         45.12136        36.11063         0.11598
C         43.90643        35.30448        -0.25912
C         45.27113        37.40444        -0.62678
C         43.97836        38.10920        -1.02675
C         45.01571        40.34992        -1.75207
C         43.96214        39.63936        -0.93376
C         45.22688        41.69455        -1.63391
C         44.02100        42.46507        -1.17542
C         45.34932        44.67527        -1.62821
C         44.08137        43.96195        -1.11163
C         45.72086        45.96703        -0.72779
C         44.82052        46.95736        -0.39154
C         44.71311        47.79961         0.75432
C         47.83664        27.74399         1.33244
C         46.90263        27.02237         0.94469
C         47.89587        29.13980         1.64617
C         46.62524        29.71737         1.09355
C         47.45128        32.01745         1.88380
C         46.51078        31.20507         1.08059
C         47.18402        33.40685         2.02873
C         46.21624        34.17101         1.21623
C         47.37170        36.48558         1.25234
C         46.29148        35.52276         0.87192
C         47.64267        37.66330         0.38992
C         46.57568        38.12278        -0.51301
C         47.96132        40.07327        -1.38805
C         46.80713        39.17421        -1.35833
C         47.83406        41.54526        -1.78612
C         46.53113        42.35695        -1.82727
C         47.87858        44.44181        -2.11504
C         46.58573        43.73623        -1.77013
C         47.91069        45.84658        -1.68518
C         47.12622        46.14414        -0.73254
C         50.13716        29.65234         2.70743
C         48.79237        29.94501         2.30805
C         49.05892        32.05673         3.73611
C         48.42776        31.34512         2.67172
C         48.74425        33.41436         3.92663
C         47.82690        34.04940         3.09006
C         49.30008        36.75193         2.96100
C         48.05889        36.23003         2.46015
C         49.95032        38.08804         1.21169
C         48.87715        38.32833         0.26794
C         50.43278        40.11001        -0.91409
C         49.04843        39.71255        -0.38370
C         50.44290        41.56028        -1.39085
C         49.14713        42.30559        -1.62670
C         50.53289        44.19037        -2.17508
C         49.16040        43.69136        -2.24904
C         51.16482        30.28952         3.04401
C         51.81544        32.63816         3.92842
C         51.21581        31.40246         3.93150
C         51.51847        33.86546         4.08641
C         50.51448        34.80699         4.17058
C         51.58931        36.77786         3.07240
C         50.42283        36.09684         3.54797
C         52.03006        37.34478         2.04980
C         51.30243        37.92693         0.96614
C         52.76929        40.15489        -1.29237
C         51.62339        39.43024        -0.78330
C         52.87803        41.36255        -1.56312
C         51.74349        42.13794        -2.15947
C         51.62383        43.63193        -2.02433
O         44.62208        26.53073         1.80726
O         37.21438        28.36762         0.56350
O         44.22429        43.15202         0.10035
O         38.23403        37.82213        -2.47671
O         30.92151        39.06891        -0.13028
O         43.57510        46.95693        -1.08854
O         44.62036        32.49951         2.05953
O         33.95213        33.16344         2.04397
O         47.44688        35.35403         3.38309
O         48.19315        40.50343        -2.76258
O         38.67221        43.74500        -1.18792
O         49.95370        31.45437         4.65670
O         36.59600        35.43617        -2.12419
O         43.94009        36.07225         0.99488
O         49.55613        38.09020         2.57474
O         40.10437        40.99662        -2.47341
O         44.79626        37.39958        -2.01843
O         35.40070        33.06997        -1.45189
O         38.85006        34.24617        -2.35623
O         46.96381        30.48562        -0.12985
O         36.24351        31.04652         1.36649
O         49.86616        42.41663        -0.36105
O         41.17309        44.72579         2.47591
O         38.43419        39.64008         0.57939
O         48.39964        44.02431        -3.41366
O         33.98630        43.69044         0.38160
O         42.48188        33.24202        -1.78111
O         35.22589        35.82866         1.37349
O         39.67598        26.63913         0.68632
O         39.95209        28.76952        -1.88685
O         45.91841        39.51167        -2.39322
O         49.39070        34.26452         4.87293
O         32.25389        36.21628        -0.53016
O         39.76715        31.13312         0.58242
O         35.31672        37.64290        -1.95031
O         51.85938        38.16471        -0.27511
O         44.52812        29.41595         2.23117
O         39.88621        36.69774         0.40069
O         33.42331        39.10893        -1.13510
O         41.80664        44.57670        -2.15977
O         32.40616        35.09561         3.06169
H         33.06368        34.35904         3.11792
O         31.03301        30.44111         1.85973
H         30.14313        30.03350         1.86224
O         41.60721        42.11146         0.60674
H         41.31596        42.85894         1.17796
O         38.04727        26.37426        -3.84643
H         38.68177        25.97128        -4.47217
O         42.57479        41.90775        -2.92165
H         41.69230        41.57077        -3.21285
O         42.10280        30.64914        -2.17717
H         43.07962        30.53462        -2.23576
O         38.01453        33.14761         1.07693
H         37.64349        32.37451         1.56930
O         36.03098        40.19082        -2.19590
H         35.29954        39.64975        -2.57528
O         44.32573        39.89416         0.46540
H         43.97501        40.77231         0.73609
O         42.08520        28.62130         2.02782
H         42.81200        28.55917         2.68925
O         51.59940        41.78868        -3.50563
H         52.34042        42.15518        -4.02967
O         45.02285        45.16779        -2.91956
H         45.83498        45.50380        -3.35401
O         44.59416        30.64111        -1.17234
H         45.57686        30.48952        -1.15772
O         42.18148        31.81909         1.28633
H         42.81258        32.29404         1.87967
O         48.71252        40.57222         0.74216
H         49.34916        40.41698         1.47221
O         42.87659        35.66669        -2.51396
H         43.65264        36.18801        -2.82999
O         37.66016        25.95584        -0.46314
H         37.23788        26.36696         0.32726
O         38.87295        43.86019         3.39815
H         39.43810        44.18432         4.12955
O         41.55710        34.85228         0.74299
H         41.16827        35.60439         1.24916
O         31.07679        43.13228         0.93383
H         30.35495        43.68981         1.28735
