         314
 CSIRO Nanostructure Databank - Neutral Graphene Oxide Data Set
C         30.39414        57.16844         0.26686
C         30.32688        58.58837        -0.05145
C         29.10876        59.38524         0.05205
C         30.37074        61.49898         0.06823
C         29.15701        60.75877         0.03907
C         32.92331        52.92633         0.57624
C         32.87795        54.35261         0.55298
C         31.66155        55.05353         0.38299
C         32.86162        57.19953         0.48632
C         31.62532        56.47290         0.34927
C         32.82039        58.66406         0.58589
C         31.64900        59.39235         0.04595
C         32.85042        61.55663         0.24170
C         31.60861        60.86460         0.17803
C         35.40792        48.65494         1.09743
C         35.39118        50.03724         0.95580
C         34.19498        50.77249         0.73880
C         35.34566        52.93811         0.85194
C         34.14453        52.20149         0.68387
C         35.30980        54.38253         1.03960
C         34.07947        55.11194         0.74514
C         35.35009        57.28096         0.66524
C         34.08761        56.52966         0.69448
C         35.36560        58.69374         0.53766
C         34.11679        59.45582         0.67699
C         35.32384        61.55460         0.16463
C         34.08815        60.89575         0.32462
C         37.92777        44.40386         0.72214
C         37.93152        45.82221         1.05619
C         36.72955        46.49283         1.11008
C         37.97518        48.67301         1.54548
C         36.63973        47.91772         1.42595
C         37.99037        50.11565         1.20850
C         36.69376        50.75077         0.84505
C         37.88010        53.02304         0.90664
C         36.63041        52.26023         0.77883
C         37.87505        54.37928         0.72659
C         36.64655        55.16341         0.92135
C         37.77129        57.28842         0.23023
C         36.58793        56.59359         0.57170
C         37.76142        58.68304         0.06040
C         36.55897        59.39558         0.24357
C         37.77947        61.54137         0.01086
C         36.55270        60.85618         0.13241
C         40.19569        40.13532        -0.59049
C         40.21245        41.59246        -0.18615
C         39.07858        42.26536         0.16358
C         40.37979        44.35612         0.62618
C         39.06482        43.68733         0.47061
C         40.45570        45.78504         1.07111
C         39.19151        46.54276         1.23073
C         40.51319        48.66490         1.55378
C         39.23166        47.90933         1.39719
C         40.49527        50.17714         1.41044
C         39.16620        50.81942         1.14607
C         40.45075        53.05306         0.88488
C         39.14598        52.29670         1.09119
C         40.38953        54.40751         0.32580
C         39.08442        55.04601         0.21297
C         40.29926        57.23479        -0.17600
C         39.01395        56.53813        -0.07326
C         40.27893        58.72057         0.07951
C         39.00496        59.38473        -0.45088
C         40.23691        61.54430        -0.15721
C         39.01840        60.87257        -0.14393
C         42.70141        35.88617         0.09892
C         42.69242        37.30238         0.03919
C         41.49182        38.03839        -0.16116
C         42.74783        40.11516        -0.35790
C         41.50853        39.41988        -0.32477
C         42.75551        41.57248        -0.65642
C         41.46644        42.33014        -0.48638
C         42.83648        44.47527         0.00615
C         41.53283        43.79023        -0.13264
C         42.84430        45.87819         0.38648
C         41.70423        46.53710         0.80487
C         43.04268        48.70247         1.05489
C         41.83037        47.86986         1.51085
C         43.05135        50.20960         0.93930
C         41.74071        50.92978         1.01449
C         42.91005        53.05596         0.43764
C         41.68880        52.25962         0.71280
C         42.80248        54.44253        -0.03485
C         41.54777        55.09333        -0.11390
C         42.63971        57.24647        -0.99832
C         41.46277        56.53386        -0.36496
C         42.68185        58.75109        -0.73168
C         41.51604        59.44157        -0.39322
C         42.69873        61.56300        -0.59250
C         41.48992        60.86273        -0.37408
C         45.16320        33.05120         0.00632
C         43.94907        33.74152         0.00698
C         45.14571        35.83839         0.40115
C         43.92214        35.15517         0.17323
C         45.12208        37.29421         0.59042
C         43.91699        38.02819         0.14920
C         45.27280        40.09193        -0.11501
C         43.95033        39.41354        -0.08346
C         45.34883        41.60599        -0.31279
C         44.05500        42.34872        -0.54201
C         45.27784        44.45413         0.01640
C         44.01747        43.78719        -0.19029
C         45.30646        45.87675         0.06356
C         44.10149        46.59803         0.26101
C         45.33783        48.69427         0.02370
C         44.16232        47.98969         0.41620
C         45.30661        50.12718        -0.19196
C         44.20565        50.84348         0.22036
C         45.32087        53.01124        -0.48069
C         44.21602        52.31925         0.20896
C         45.30140        54.41474        -0.59723
C         44.06922        55.16559        -0.24408
C         45.14142        57.24143        -1.31430
C         43.97861        56.61341        -0.63594
C         45.09295        58.76335        -1.46213
C         43.86902        59.47402        -1.00877
C         45.14097        61.67316        -1.19404
C         43.88710        60.88045        -0.88018
C         46.37009        33.72300         0.17118
C         47.61679        35.81262         0.54594
C         46.39643        35.13784         0.38874
C         47.72999        37.24613         0.99196
C         46.41959        38.02395         0.82410
C         47.69470        40.10350         0.30423
C         46.47930        39.43580         0.40184
C         47.74254        41.54694         0.30754
C         46.54834        42.29968         0.20919
C         47.53416        44.54721         0.79616
C         46.45647        43.73473         0.32631
C         47.73539        45.86462         0.39138
C         46.55177        46.58036         0.05377
C         47.80775        48.68082        -0.37003
C         46.54999        47.99479        -0.10425
C         47.80991        49.99936        -0.90842
C         46.40753        50.70964        -1.09429
C         47.32011        52.98636        -1.75931
C         46.37289        52.24764        -1.04429
C         47.55831        54.36110        -1.61018
C         46.44370        55.11994        -1.11525
C         47.59599        57.26522        -1.73511
C         46.41020        56.51712        -1.33780
C         47.59446        58.72302        -1.42004
C         46.38975        59.46400        -1.38701
C         47.64651        61.49410        -0.97531
C         46.41932        60.85908        -1.15387
C         48.91227        37.95954         0.39082
C         50.14728        40.00872        -0.15982
C         48.93684        39.32368         0.22010
C         50.24080        41.39269        -0.08642
C         49.07114        42.14581         0.36678
C         50.50160        44.20478         0.60415
C         49.32588        43.38987         0.88998
C         50.36528        45.74299         0.44681
C         49.04652        46.62149         0.60698
C         50.18585        48.41898        -0.81122
C         49.00470        47.91956        -0.23643
C         50.27456        49.76227        -1.27963
C         49.07571        50.51440        -1.35275
C         50.28532        52.69223        -1.69796
C         49.21146        51.85692        -1.90499
C         50.22792        54.18610        -1.88529
C         48.86386        54.96835        -1.95907
C         50.13188        57.11202        -1.32329
C         48.92415        56.47788        -1.83959
C         50.00005        58.51403        -0.85382
C         48.81537        59.35156        -1.15206
C         50.08341        61.42119        -0.58309
C         48.85800        60.75776        -0.91246
C         51.46678        42.10545        -0.30033
C         52.78330        44.20395        -0.38055
C         51.61162        43.47610        -0.05898
C         52.76237        45.60713        -0.50369
C         51.46444        46.29660        -0.37544
C         53.08252        48.47847        -1.41763
C         51.23811        47.45676        -1.05681
C         52.87367        49.81351        -1.24281
C         51.57564        50.45252        -1.63506
C         52.84148        52.79902        -1.52802
C         51.58846        51.97760        -1.72242
C         52.71869        54.27512        -1.24598
C         51.38941        54.96365        -1.36876
C         52.53212        57.04654        -0.58972
C         51.30111        56.33960        -1.07743
C         52.47835        58.50077        -0.26994
C         51.17910        59.22830        -0.29022
C         52.46013        61.33645         0.09461
C         51.24865        60.71311        -0.27816
C         53.99341        46.31627        -0.62772
C         55.26209        48.46089        -0.34811
C         54.15887        47.71490        -0.81525
C         55.27432        49.87655        -0.43219
C         54.12352        50.58664        -1.05704
C         55.35273        52.87865        -0.80573
C         54.13025        52.06685        -1.22162
C         55.02289        54.21949        -0.17281
C         53.83629        54.91703        -0.48180
C         54.74183        56.91638         0.60694
C         53.69779        56.26931        -0.08081
C         54.61362        58.29677         1.12087
C         53.44122        59.12247         0.68897
C         54.61167        61.20951         1.30704
C         53.54629        60.60862         0.66829
C         56.33112        50.64854         0.05161
C         57.37719        52.76373         0.62604
C         56.35205        52.07114         0.01021
C         57.33926        54.19215         0.75780
C         56.10063        54.88596         0.46382
C         57.11774        56.97464         1.32074
C         55.97970        56.25443         0.83018
C         57.02679        58.37756         1.63222
C         55.78631        59.02225         1.59954
C         56.87893        61.16142         2.27630
C         55.58871        60.41571         2.14613
C         58.43174        54.89717         1.24757
C         59.51475        57.03602         1.85877
C         58.36951        56.30557         1.47772
C         59.45890        58.43486         2.08568
C         58.20502        59.10568         2.00238
C         59.33084        61.24002         2.50325
C         58.11967        60.52424         2.24495
C         60.62646        59.18934         2.39171
C         60.54865        60.57106         2.58076
O         43.91585        52.90364         1.51635
O         40.52320        49.54326         2.73098
O         37.20667        48.32231         2.73599
O         41.22860        43.37378        -1.50107
O         44.24402        56.30247         0.74574
O         40.67824        44.66711         2.02380
O         51.63593        51.11914        -2.92750
O         45.60618        40.70301        -1.42136
O         38.81344        55.56792        -1.15408
O         43.47920        42.00387        -1.84604
O         48.25664        57.03344        -3.02400
O         49.59395        54.56380        -3.14617
O         50.85108        45.14724         1.68013
O         36.76681        51.41173        -0.46424
O         48.40056        43.99180         1.74418
O         53.11232        53.76907        -2.59050
O         31.19508        58.91065        -1.22688
O         42.43111        57.05632        -2.37398
O         53.40489        58.50580         2.00908
O         36.03854        54.87994         2.21901
O         39.88288        52.89464         2.23034
O         48.11894        52.28699        -2.65140
O         54.49078        51.21286        -2.36025
O         45.53069        37.77509         1.97173
O         53.00591        58.09627        -1.55785
O         50.23613        58.61877         0.64674
O         43.48387        49.55402         2.17350
O         52.10673        47.75375        -2.10741
O         33.31823        59.15682         1.87114
O         44.87932        57.88608        -2.60286
O         49.07866        47.08688         1.97384
H         49.44224        46.35117         2.51900
O         40.21959        58.87121         1.53066
H         41.05218        58.52184         1.91263
O         39.01898        59.24022        -1.88954
H         38.21557        59.66359        -2.25554
O         42.10542        47.48392         2.87743
H         42.12251        48.31680         3.40280
O         55.01063        60.25797         3.49602
H         54.21641        59.68106         3.38514
O         56.05092        53.23854        -2.03201
H         55.37047        53.35578        -2.73240
O         39.91568        40.07703        -2.00362
H         40.57427        40.63537        -2.46845
O         45.00458        62.25138        -2.50781
H         44.88542        61.52169        -3.15097
O         47.99995        37.15256         2.43162
H         47.11556        37.14750         2.87063
O         45.99883        50.34546        -2.44233
H         46.63924        50.76485        -3.06096
H         29.45567        56.60850         0.39420
H         28.15174        58.86547         0.20300
H         30.32346        62.59641         0.10081
H         28.21255        61.32057         0.07861
H         31.97991        52.36968         0.47977
H         30.72447        54.49041         0.26727
H         32.84326        62.64907         0.10745
H         34.47026        48.08620         1.00795
H         33.24520        50.21825         0.71243
H         35.33152        62.64628         0.02501
H         36.94674        43.91147         0.64018
H         35.80346        45.96361         0.83829
H         37.77335        62.64199         0.06009
H         39.36282        39.59649        -0.07407
H         38.12902        41.71453         0.25104
H         40.25088        62.63826        -0.02724
H         41.75462        35.33841        -0.01250
H         40.53408        37.49928        -0.20346
H         42.70063        62.66279        -0.56961
H         45.16535        31.96177        -0.13939
H         43.00522        33.19969        -0.14676
H         45.22674        62.53296        -0.48103
H         47.31931        33.16910         0.15177
H         48.54542        35.22096         0.53561
H         47.67562        62.58195        -0.81533
H         49.83812        37.38023         0.25567
H         51.04078        39.41154        -0.39433
H         50.08320        62.51891        -0.51092
H         52.32417        41.55073        -0.71016
H         53.70196        43.65579        -0.63727
H         52.50350        62.43593         0.11006
H         54.90172        45.73618        -0.39554
H         56.09866        47.95009         0.15145
H         54.69992        62.30624         1.29885
H         57.18027        50.13938         0.53385
H         58.20942        52.21372         1.09143
H         56.83274        62.23917         2.49461
H         59.37465        54.36725         1.44687
H         60.47851        56.51413         1.95229
H         59.28378        62.32516         2.67203
H         61.59562        58.67560         2.46137
H         61.46428        61.13808         2.80031
