         324
 CSIRO Nanostructure Databank - Neutral Graphene Oxide Data Set
C          1.21922         2.08728        -1.10203
C          1.15407         3.48694        -0.75714
C          2.36129         1.36409        -0.97629
C          2.25404         4.18665        -0.35640
C          1.01689         6.42141        -0.38308
C          1.05375         7.74614        -0.61513
C          2.26110         5.65858         0.02129
C          2.29770         8.50949        -0.49161
C          1.11925        10.71128        -0.34917
C          1.12556        12.14188        -0.29903
C          2.27133         9.97151        -0.48076
C          2.26758        12.89303        -0.42252
C          1.10720        15.11901         0.20546
C          1.18510        16.45746         0.42164
C          2.26002        14.38008        -0.33261
C          2.43347        17.18706         0.37072
C          2.45154        18.59111         0.59263
C          3.56181         1.95561        -0.37445
C          3.52018         3.47407        -0.08734
C          4.87202         1.34653        -0.55393
C          4.80389         4.20915        -0.09947
C          3.51623         6.32544        -0.57046
C          3.48732         7.83096        -0.38851
C          4.80043         5.62812        -0.13586
C          4.72422         8.56352        -0.04216
C          3.55094        10.68000        -0.70404
C          3.54827        12.22338        -0.73616
C          4.80191        10.00365        -0.34701
C          4.83593        12.92467        -0.50361
C          3.60701        15.10799        -0.29789
C          3.65666        16.50095         0.21415
C          4.84460        14.29818        -0.33866
C          4.89611        17.16134         0.47936
C          3.64445        19.27689         0.61064
C          4.90405        18.60342         0.59768
C          6.04502         2.04516        -0.25448
C          6.01936         3.49001        -0.05197
C          7.29333         1.36985        -0.27377
C          7.25570         4.20024         0.01812
C          6.00869         6.32474         0.02660
C          5.98588         7.79925         0.24189
C          7.24504         5.62425         0.08853
C          7.30203         8.56418         0.33210
C          6.02656        10.69936        -0.33013
C          6.06029        12.14198        -0.47102
C          7.26402         9.97931        -0.21578
C          7.30746        12.78738        -0.38087
C          6.10602        15.04736        -0.25251
C          6.10797        16.37641         0.41569
C          7.37922        14.26171        -0.30502
C          7.31825        16.83156         0.90936
C          6.07550        19.42526         0.47871
C          7.35485        18.98108         0.83821
C          8.51715         2.05437        -0.11283
C          8.50210         3.49090         0.00740
C          9.75158         1.36559        -0.12184
C          9.73011         4.19409         0.08003
C          8.49952         6.34538         0.07783
C          8.51367         7.75458        -0.05853
C          9.72934         5.62821         0.08210
C          9.72644         8.43954        -0.24571
C          8.48978        10.64211        -0.36973
C          8.52481        12.05893        -0.36904
C          9.67624         9.82929        -0.84851
C          9.80931        12.74085        -0.32368
C          8.58896        14.78303         0.44054
C          8.60761        16.28692         0.55417
C          9.85361        14.15749        -0.06046
C          9.74631        17.05353         0.43628
C          8.64143        19.37434         0.42611
C          9.79824        18.52577         0.48456
C         10.98302         2.05654        -0.03077
C         10.97007         3.48893         0.07414
C         12.22502         1.37090        -0.05748
C         12.20751         4.19903         0.14174
C         10.96154         6.34315         0.12733
C         10.93595         7.74543        -0.06639
C         12.21654         5.63891         0.24629
C         12.14013         8.53716         0.23383
C         11.04679        10.58904        -0.95069
C         10.99872        12.05429        -0.54780
C         12.22303         9.92697        -0.24138
C         12.24675        12.75902        -0.53335
C         11.02373        14.88004        -0.08497
C         10.99339        16.39542        -0.14797
C         12.27606        14.18948        -0.29013
C         12.26010        17.03206         0.35188
C         11.06193        19.14457         0.44459
C         12.29831        18.41737         0.53336
C         13.44967         2.06696        -0.03358
C         13.42395         3.49331         0.03997
C         14.70362         1.36048         0.00956
C         14.67497         4.25252        -0.06004
C         13.43555         6.33534         0.43908
C         13.38893         7.79687         0.67026
C         14.69132         5.67046         0.34205
C         14.67745         8.56183         0.68507
C         13.41778        10.60635        -0.27760
C         13.44668        12.01968        -0.59161
C         14.68825         9.96880         0.16043
C         14.71290        12.71783        -0.77926
C         13.47851        14.85266        -0.03853
C         13.46449        16.22370         0.51663
C         14.74258        14.23276        -0.41753
C         14.77922        16.94728         0.74658
C         13.55866        19.09684         0.69200
C         14.78324        18.42867         0.68839
C         15.92802         2.00623         0.10996
C         15.98992         3.47475        -0.03096
C         17.16410         1.31519         0.31909
C         17.20800         4.18340         0.38877
C         15.93979         6.30909         0.56174
C         15.95556         7.77071         0.81945
C         17.17784         5.60841         0.54755
C         17.24574         8.50853         0.68755
C         15.98377        10.51769        -0.37318
C         16.01656        11.96923        -0.76214
C         17.26354         9.85027         0.02165
C         17.30999        12.72937        -0.61675
C         16.04704        14.83388        -0.05459
C         16.06947        16.20784         0.52174
C         17.22812        14.18074        -0.27827
C         17.33869        17.00542         0.45232
C         16.02826        19.12514         0.61350
C         17.27479        18.48788         0.48851
C         18.35982         1.99274         0.50790
C         18.36883         3.42303         0.59379
C         19.65358         1.21603         0.72459
C         19.61900         4.12677         0.92026
C         18.44972         6.30999         0.72533
C         18.51409         7.75562         0.63596
C         19.62673         5.58766         0.85017
C         19.68907         8.48325         0.70641
C         18.53270        10.61837         0.08481
C         18.55137        12.00130        -0.19795
C         19.71601         9.92774         0.46379
C         19.77014        12.71140        -0.11824
C         18.50629        14.92853        -0.37541
C         18.56032        16.36906        -0.07576
C         19.79664        14.16058        -0.46985
C         19.75181        17.07698        -0.07891
C         18.49625        19.18132         0.38178
C         19.73706        18.51234         0.18741
C         20.88434         2.00033         0.22328
C         20.93835         3.39988         0.82873
C         22.19651         1.30621         0.44336
C         22.18282         4.18975         0.60569
C         20.91663         6.26700         1.06497
C         20.92765         7.77701         1.08027
C         22.17357         5.56435         0.73007
C         22.24042         8.49821         1.04106
C         20.92310        10.66276         0.58011
C         20.94052        12.04012         0.29461
C         22.21292        10.00527         0.92519
C         22.17713        12.80612         0.59824
C         21.11887        14.91879        -0.47958
C         21.02535        16.42433        -0.25696
C         22.18201        14.29054         0.39711
C         22.22208        17.12856        -0.21279
C         20.95512        19.20637         0.20049
C         22.22210        18.58987        -0.02320
C         23.39735         2.02441         0.40181
C         23.39941         3.47230         0.34785
C         24.65182         1.34925         0.44488
C         24.62894         4.19460         0.25356
C         23.33844         6.35848         0.18072
C         23.45971         7.78769         0.65167
C         24.64026         5.61134         0.24241
C         24.65064         8.49022         0.47156
C         23.48235        10.68158         0.60399
C         23.47577        12.10249         0.58072
C         24.67928         9.94434         0.50247
C         24.67902        12.81745         0.51217
C         23.48054        14.97787         0.32698
C         23.46319        16.35385        -0.08740
C         24.66967        14.26129         0.46830
C         24.68459        16.93443        -0.36599
C         23.36322        19.42332         0.09109
C         24.69247        19.06913        -0.30207
C         25.87491         2.04479         0.35792
C         25.87321         3.48242         0.22339
C         27.11204         1.35776         0.40826
C         27.08616         4.18615         0.06894
C         25.85824         6.33299         0.14320
C         25.87716         7.76949         0.19475
C         27.08663         5.62123        -0.01843
C         27.09773         8.46913         0.04267
C         25.92297        10.64109         0.31382
C         25.92813        12.09546         0.37725
C         27.12223         9.91376         0.12585
C         27.12517        12.80044         0.26209
C         25.93319        15.00095         0.62459
C         25.93639        16.49979         0.22039
C         27.21296        14.24183         0.54360
C         27.16934        17.28141        -0.01272
C         25.93925        19.48557         0.11963
C         27.15423        18.68785        -0.12345
C         28.33280         2.04601         0.27902
C         28.32738         3.46269         0.06534
C         29.58913         1.36367         0.32787
C         29.54600         4.14164        -0.16553
C         28.28725         6.34056        -0.29028
C         28.29732         7.74375        -0.25960
C         29.51162         5.55619        -0.58733
C         29.53688         8.50375        -0.56022
C         28.38814        10.60593         0.02416
C         28.35329        12.08534        -0.10924
C         29.57765         9.93583        -0.17983
C         29.60456        12.85071        -0.40645
C         28.48730        15.04092         0.15811
C         28.44910        16.55021         0.06793
C         29.61831        14.32862        -0.39980
C         29.67851        17.27800        -0.41220
C         28.37481        19.38911        -0.37529
C         29.57777        18.73725        -0.66638
C         30.77004         2.05010         0.16766
C         30.77326         3.45076        -0.10003
C         32.01476         4.18203        -0.19740
C         30.84211         6.26771        -0.81497
C         30.83673         7.77723        -0.84445
C         32.05650         5.51694        -0.45048
C         32.10141         8.52443        -0.63537
C         30.89007        10.63791        -0.15587
C         30.92619        12.15300        -0.28932
C         32.11570         9.84678        -0.39993
C         32.07768        12.90234        -0.84748
C         30.72002        14.97539        -1.10097
C         30.78677        16.53365        -1.10534
C         31.95563        14.17557        -1.27599
C         32.00909        17.30421        -1.30655
C         30.77356        19.40315        -1.01269
C         31.97028        18.68530        -1.22295
O         28.19913        14.58150         1.54745
O         14.69577        13.74053        -1.80080
O         14.04832        16.37415         1.87608
O         12.46611         8.29987         1.67025
O         15.43374         3.97784        -1.29191
O         28.75810        12.40351        -1.54273
O         30.04249         8.31024        -1.94551
O         16.92650        16.32595         1.71064
O          3.57131        11.43522        -1.96373
O         20.86737         7.01968         2.33615
O         19.08834        14.52307        -1.69806
O         21.88275        13.75523         1.71064
O         25.83606        16.04138         1.62375
O         30.08563         5.71558        -1.93309
O         22.32380         9.35385         2.23406
O         30.32466        15.78113        -2.27958
O         16.66768         8.26678         2.01199
O          9.21358         9.56824        -2.17767
O         20.32771         3.57058         2.13089
O         31.09214        11.52831         1.01690
O         29.47145        17.04683         1.01800
O         24.72959        18.00401        -1.24884
O          5.12041         8.19453         1.36648
O         16.67951         9.67732        -1.33693
O          3.39025         2.49931         0.98963
O         14.68491         9.70242         1.59741
O         16.82604        12.28381        -1.92552
O          6.95421        14.99634        -1.48165
O          2.82525        14.99917        -1.53906
O          7.33215        17.92046         1.77827
O          2.38122         5.71809         1.46185
H          1.75660         5.07557         1.85695
O          8.40157        14.28106         1.80477
H          9.19786        14.51089         2.32882
O          3.43069         6.08081        -2.00749
H          4.14833         6.57670        -2.45446
O         19.80249         0.89912         2.11054
H         19.91515         1.75178         2.59473
O         23.00486         6.48465        -1.27731
H         23.82315         6.77433        -1.73691
O          7.54502         8.80489         1.76102
H          6.65984         8.81542         2.19940
O         21.66592        14.72904        -1.81874
H         20.92037        14.86858        -2.44727
O         11.43175        10.58752        -2.34918
H         10.62428        10.22510        -2.82191
O         20.69121         2.17423        -1.21380
H         21.52752         2.51405        -1.59666
O         10.94703        16.70822        -1.58610
H         10.17188        16.24446        -1.96992
H          0.32267         1.62380        -1.53731
H          0.19388         3.99757        -0.91512
H          2.41934         0.33416        -1.35806
H          0.04852         5.89970        -0.39922
H          0.12735         8.28426        -0.86185
H          0.15307        10.20651        -0.21330
H          0.16286        12.64084        -0.11962
H          0.16341        14.58709         0.39087
H          0.28924        17.00955         0.74297
H          1.49875        19.13027         0.69222
H          4.93514         0.30705        -0.90967
H          3.64156        20.37281         0.70007
H          7.30358         0.27968        -0.42116
H          5.95014        20.42545         0.03589
H          9.75390         0.26990        -0.21860
H          8.77924        20.38091         0.00129
H         12.22877         0.27220        -0.11296
H         11.10596        20.24423         0.46221
H         14.67433         0.26086         0.04803
H         13.55291        20.19715         0.70787
H         17.15768         0.21470         0.32706
H         16.00199        20.22561         0.62407
H         19.59197         0.24741         0.16784
H         18.49652        20.27865         0.46703
H         22.21981         0.21203         0.55374
H         20.93480        20.29134         0.38693
H         24.66283         0.25249         0.53108
H         23.20540        20.42511         0.52164
H         27.11661         0.26602         0.54374
H         26.04862        20.40152         0.71932
H         29.59704         0.27820         0.50243
H         28.34421        20.48781        -0.42035
H         31.73097         1.51842         0.22262
H         32.94840         3.63993         0.01400
H         33.01930         6.04477        -0.39945
H         33.05513         7.98801        -0.74173
H         33.07664        10.36478        -0.27037
H         33.04274        12.38500        -0.94957
H         32.81595        14.67195        -1.74782
H         32.92639        16.79942        -1.63935
H         30.77543        20.49797        -1.10821
H         32.89151        19.25120        -1.42308
