         228
 CSIRO Nanostructure Databank - Neutral Graphene Oxide Data Set
C        -10.95075         0.71237        -0.56102
C         -9.82591         1.54070        -1.05960
C         -8.52709         0.83967        -1.34214
C         -7.22213         1.65406        -1.23929
C         -5.94535         0.82629        -0.90077
C         -4.75542         1.53018        -0.31469
C         -3.55486         0.78229         0.12266
C         -2.33866         1.51752         0.31912
C         -1.13426         0.77640         0.50275
C          0.14594         1.48580         0.62017
C          1.35322         0.72942         1.01946
C          2.55334         1.44165         1.22599
C          3.79920         0.76913         1.26448
C          4.99120         1.49197         1.01531
C          6.28645         0.77364         0.90429
C          7.29022         1.32679        -0.08247
C          8.66230         0.71248         0.14416
C          9.84169         1.43311        -0.47275
C         11.00109         0.61428        -0.88104
C         -9.81829         2.99091        -0.76936
C         -8.64467         3.68358        -0.53875
C         -7.39628         2.88141        -0.33806
C         -6.19646         3.58321         0.22286
C         -4.85282         2.87474         0.37523
C         -3.62123         3.69821        -0.01038
C         -2.34718         2.95046         0.33788
C         -1.18479         3.70423         0.65278
C          0.12415         2.99264         0.71962
C          1.20899         3.61143         1.58549
C          2.55261         2.90526         1.44740
C          3.84379         3.68067         1.21156
C          5.01548         2.88793         0.79527
C          6.18350         3.54244         0.26738
C          7.30453         2.82996        -0.13410
C          8.43183         3.46419        -0.79465
C          9.58968         2.73827        -1.08725
C         -8.62141         5.07998        -0.28507
C         -7.42905         5.77916         0.02782
C         -6.20862         5.06422         0.24653
C         -5.00435         5.77241         0.36508
C         -3.73363         5.06114         0.63369
C         -2.48219         5.84833         0.88178
C         -1.20969         5.09558         0.81901
C          0.00518         5.87474         1.11732
C          1.29120         5.15359         1.44411
C          2.58729         5.82786         1.11792
C          3.75717         5.14426         0.94210
C          4.98907         5.86357         0.52085
C          6.21921         5.02504         0.16456
C          7.21188         5.60370        -0.77225
C          8.29312         4.82241        -1.20062
C         -7.40642         7.20451         0.10708
C         -6.20755         7.90404         0.22499
C         -4.97696         7.17896         0.29400
C         -3.71351         7.89188         0.28775
C         -2.51888         7.30882         0.62930
C         -1.27069         8.16691         0.84938
C          0.02224         7.33364         0.79055
C          1.21514         7.94823         1.02370
C          2.54622         7.31232         0.99591
C          3.70578         8.05737         0.26312
C          4.86397         7.20289        -0.09397
C          5.91599         7.70521        -0.87322
C          7.06171         6.93292        -1.18958
C         -6.15156         9.36356         0.34588
C         -4.99061        10.02585         0.16291
C         -3.79869         9.25388        -0.35760
C         -2.48255         9.96016        -0.42761
C         -1.29695         9.42096        -0.04581
C         -0.08829        10.06112        -0.56297
C          1.15348         9.90465        -0.02182
C          2.42514        10.13248        -0.66128
C          3.54918         9.34805        -0.50270
C          4.70268         9.78797        -1.26544
C          5.82194         9.04157        -1.42337
C        -10.93644        -0.62566        -0.63929
C         -9.84391        -1.39860        -1.34831
C         -8.48632        -0.66892        -1.31981
C         -7.22926        -1.38905        -0.93293
C         -5.97618        -0.63668        -0.64240
C         -4.87002        -1.28239        -0.13381
C         -3.59017        -0.61578         0.13288
C         -2.38756        -1.33580         0.40666
C         -1.14928        -0.63796         0.60158
C          0.07718        -1.35947         0.86529
C          1.30827        -0.70302         1.03773
C          2.54175        -1.47044         1.26091
C          3.79866        -0.70181         1.50435
C          5.12895        -1.43760         1.55533
C          6.38601        -0.69240         1.19347
C          7.55434        -1.44528         0.65128
C          8.68543        -0.76596         0.23668
C          9.89801        -1.47669        -0.14771
C         11.02377        -0.72316        -0.69562
C         -9.76585        -2.81237        -0.81770
C         -8.62073        -3.46535        -0.48474
C         -7.33442        -2.80013        -0.49081
C         -6.18730        -3.48020        -0.11903
C         -4.95696        -2.72567         0.17267
C         -3.66862        -3.50669         0.31612
C         -2.37466        -2.77638         0.35903
C         -1.21739        -3.48331         0.55463
C          0.00675        -2.83896         1.15803
C          1.31337        -3.59433         0.93481
C          2.55392        -2.85648         1.16808
C          3.81411        -3.65483         1.27327
C          5.14135        -2.93475         1.39516
C          6.35778        -3.58743         0.84825
C          7.52312        -2.88725         0.64880
C          8.82434        -3.66257         0.48898
C          9.96785        -2.83287        -0.01608
C         -8.70054        -4.87566         0.08200
C         -7.39178        -5.63351         0.02677
C         -6.17762        -4.91475         0.02955
C         -4.92205        -5.62818        -0.03445
C         -3.70460        -4.93485         0.00575
C         -2.37897        -5.54296        -0.38341
C         -1.26279        -4.95433         0.47653
C          0.02193        -5.68944         0.61832
C          1.30523        -4.95590         0.76303
C          2.55248        -5.81767         0.92538
C          3.83794        -5.05311         0.76194
C          5.01213        -5.71661         0.46441
C          6.37975        -5.10475         0.75741
C          7.44375        -5.59536        -0.22543
C          8.58777        -4.86251        -0.38946
C         -7.38671        -7.03300         0.06552
C         -6.17443        -7.76003        -0.00212
C         -4.95944        -7.06126        -0.13846
C         -3.73160        -7.81696        -0.38995
C         -2.40749        -7.06634        -0.42152
C         -1.22032        -7.79605        -0.06173
C          0.03655        -7.04192        -0.00769
C          1.29750        -7.78386        -0.19050
C          2.55650        -7.13364         0.18499
C          3.73209        -7.76554        -0.17400
C          4.98172        -7.06469        -0.05485
C          6.15192        -7.65419        -0.62432
C          7.32156        -6.90438        -0.77077
C         -6.15158        -9.21437         0.01745
C         -4.99215        -9.92766        -0.00843
C         -3.69573        -9.27645        -0.10132
C         -2.51244        -9.95167        -0.00424
C         -1.18237        -9.26740         0.21135
C          0.05080        -9.91627        -0.39678
C          1.24203        -9.24646        -0.45248
C          2.50474        -9.83339        -0.82973
C          3.68519        -9.11965        -0.74072
C          4.93137        -9.71175        -1.16707
C          6.09510        -9.00861        -1.13201
O         -4.45958        -3.10735         1.50385
O          9.56917         1.43282         0.99983
O          9.17141        -4.18532         1.79979
H          8.36804        -4.70488         2.11681
O          0.51963         5.75038         2.52744
O         -3.07377        -7.52341        -1.68693
O          1.25260         9.31981         1.25028
O         -3.29538         5.26825         1.99906
O          3.54275         8.07462         1.72289
O         -9.38034         1.26625        -2.45059
O         -3.64054         3.94942        -1.43484
H         -3.83275         3.10508        -1.90421
O          6.83362         0.85568        -1.39532
H          7.34610         1.33260        -2.08256
O         -4.86893         1.36227        -1.76878
O         -7.14435         2.82271         1.09802
O          3.40479         3.30491         2.56544
O          4.54009        -3.58261         2.55515
O          0.50956         2.40033        -0.54240
O        -10.24376        -1.49924        -2.73906
H         -9.41509        -1.57635        -3.26312
O         -4.68118         2.59292         1.78213
H         -5.57250         2.46340         2.17720
O          4.48810        -1.01551         2.77517
O         -7.61858        -1.20004        -2.37709
O         -9.75195        -5.61692        -0.53724
H         -9.57516        -5.65906        -1.49915
O          2.54273        -6.20681         2.35179
H          3.10653        -5.57229         2.84867
O         -0.95285        -9.38675         1.67858
H         -1.64907        -8.86998         2.13838
O         -0.22191        -2.94705         2.60827
H         -0.43266        -3.89415         2.78949
O         -7.00984         2.25882        -2.52825
H         -7.13039         1.56974        -3.21481
O         -2.08989        -5.07010        -1.72813
H         -2.49645        -5.72297        -2.34495
O          0.69116        -7.01057        -1.35097
O         -1.39187         8.65539         2.21129
H         -1.22595         7.90497         2.82088
O         -4.10553         8.98427        -1.77511
H         -4.97127         8.52289        -1.80689
O          0.76165         3.31310         2.92271
H          1.44778         3.63996         3.54514
O         -0.94081        -5.62623         1.74555
O          6.12363         5.71581         1.44724
O          6.81248         0.31359         2.17430
O          6.79816        -5.47806         2.05444
H         11.91030        -1.30038        -0.99844
H         11.85539         1.12473        -1.35070
H         10.38299         3.20393        -1.69083
H          9.07696         5.28105        -1.82128
H          7.83445         7.38023        -1.83177
H          6.67123         9.42692        -2.00449
H          4.64136        10.78176        -1.73293
H          2.48896        10.95528        -1.39200
H         -0.18367        10.60498        -1.51552
H         -2.46988        10.87680        -1.03901
H         -4.93955        11.12015         0.25939
H         -7.07492         9.89769         0.61616
H         -8.35526         7.75574         0.02954
H         -9.55376         5.65048        -0.41111
H        -10.77961         3.52662        -0.78450
H        -11.78860         1.23302        -0.07292
H        -11.78787        -1.20382        -0.24929
H        -10.71548        -3.36877        -0.77566
H         -8.98235        -4.78012         1.17008
H         -8.34499        -7.57147         0.09627
H         -7.11413        -9.74028         0.09851
H         -5.01735       -11.02500         0.06429
H         -2.53669       -11.04030         0.16410
H          0.00934       -10.98641        -0.65170
H          2.52743       -10.87685        -1.17860
H          4.91397       -10.73936        -1.55826
H          7.02764        -9.45946        -1.50135
H          8.19910        -7.36365        -1.25294
H          9.37189        -5.20204        -1.08613
H         10.90217        -3.35754        -0.26860
