         314
 CSIRO Nanostructure Databank - Neutral Graphene Oxide Data Set
C         30.25062        57.34953        -0.32039
C         30.28322        58.74851         0.26918
C         29.09006        59.40220         0.61374
C         30.31457        61.43065         1.14691
C         29.11671        60.73487         1.05286
C         32.76517        52.92327         0.02184
C         32.65554        54.37336         0.26976
C         31.49017        55.17464        -0.12902
C         32.75713        57.27204         0.07172
C         31.51729        56.55115        -0.06021
C         32.75141        58.75090         0.01410
C         31.49778        59.44239         0.37350
C         32.78395        61.48956         0.97174
C         31.54514        60.79937         0.81680
C         35.11237        48.47961        -0.06987
C         34.78972        49.79483         0.31358
C         33.83310        50.74104        -0.10511
C         35.22073        52.86297         0.49180
C         33.90999        52.15824         0.20808
C         35.24287        54.37472         0.44072
C         33.96560        55.15363         0.43844
C         35.22671        57.30689         0.14252
C         33.98150        56.60010         0.14602
C         35.29329        58.69819         0.33608
C         34.05173        59.48716         0.22815
C         35.25434        61.47344         1.07598
C         34.04328        60.86549         0.77437
C         37.74920        44.31260         0.31203
C         37.71869        45.74617         0.32882
C         36.49340        46.45731         0.17925
C         37.65987        48.60790         0.21138
C         36.40552        47.86496         0.18298
C         37.71563        50.02337         0.05925
C         36.65871        50.85400         0.43866
C         37.68861        52.94795        -0.18695
C         36.52232        52.21995         0.13442
C         37.74050        54.35811        -0.13021
C         36.45273        55.06757        -0.10518
C         37.76815        57.25688         0.05289
C         36.47595        56.58074        -0.11787
C         37.76131        58.64468         0.38678
C         36.52759        59.34429         0.54303
C         37.76515        61.54458         0.59158
C         36.57053        60.73604         1.13615
C         40.28886        40.03227         0.27782
C         40.23352        41.43468         0.17522
C         38.99045        42.14842         0.22303
C         40.21993        44.24398         0.57245
C         38.93593        43.54881         0.33760
C         40.19912        45.76998         0.62024
C         38.93221        46.49607         0.39587
C         40.15230        48.65171         0.13886
C         38.91625        47.90595         0.22337
C         40.20216        50.01127        -0.22774
C         38.92203        50.69105        -0.45847
C         40.19230        52.95156        -0.48626
C         38.91771        52.22347        -0.54121
C         40.19065        54.35908        -0.35940
C         38.95139        55.07684        -0.24163
C         40.22765        57.15958         0.15269
C         38.97554        56.51216        -0.05823
C         40.22977        58.54802         0.63605
C         38.99810        59.34428         0.57048
C         40.28482        61.43157         0.70463
C         39.05743        60.75141         0.67408
C         42.91784        36.03105         1.28702
C         42.81485        37.25472         0.64599
C         41.58539        37.95937         0.57678
C         42.71418        40.03877        -0.16397
C         41.51907        39.32708         0.21058
C         42.68185        41.43258        -0.24819
C         41.47475        42.15056         0.02099
C         42.66595        44.30975         0.13367
C         41.48433        43.56856         0.21226
C         42.64052        45.74090         0.20752
C         41.46212        46.45203         0.33818
C         42.68817        48.67725         0.13259
C         41.42447        47.93080         0.35342
C         42.69199        50.14352        -0.16105
C         41.39215        50.79646        -0.35592
C         42.65592        52.92570        -0.71447
C         41.40467        52.20553        -0.54362
C         42.64656        54.37035        -0.55807
C         41.43646        55.07462        -0.33742
C         42.71419        57.19002        -0.00134
C         41.45785        56.47841        -0.03637
C         42.77376        58.59351         0.22708
C         41.57126        59.30150         0.67676
C         42.76311        61.44575         0.49137
C         41.54098        60.77390         0.61896
C         45.51031        33.35261         1.97660
C         44.31528        34.00407         1.99473
C         45.47857        36.01941         0.98111
C         44.21923        35.40685         1.57935
C         45.33758        37.19102         0.05455
C         43.99363        37.83270        -0.06686
C         45.27108        39.99166        -0.72358
C         43.95147        39.27318        -0.49255
C         45.24744        41.49628        -0.72788
C         43.90568        42.18889        -0.61153
C         45.22244        44.35626        -0.09173
C         43.92152        43.66876        -0.33752
C         45.19460        45.76098        -0.03786
C         43.88843        46.43642        -0.19809
C         45.16020        48.62353        -0.42113
C         43.88229        47.90967        -0.29047
C         45.12902        49.92815        -0.94582
C         43.93907        50.79821        -0.71279
C         45.08352        52.99177        -1.12514
C         43.84902        52.24815        -1.04361
C         45.11420        54.31642        -0.49376
C         43.87159        55.08669        -0.46384
C         45.19592        57.19098        -0.32516
C         43.92799        56.47820        -0.24239
C         45.20958        58.63835        -0.18253
C         43.98245        59.31890         0.11173
C         45.23783        61.42638         0.36371
C         43.99785        60.74783         0.32902
C         46.69110        33.92897         1.38443
C         47.76010        35.69786        -0.08540
C         46.66790        35.17247         0.82099
C         47.82646        37.21078        -0.09959
C         46.58476        37.96439        -0.20827
C         47.90304        40.05351        -0.81743
C         46.58140        39.30446        -0.49591
C         47.81025        41.51626        -0.35918
C         46.51041        42.24468        -0.42528
C         47.65286        44.40682         0.28180
C         46.46516        43.68487        -0.03233
C         47.61868        45.84548         0.34631
C         46.38473        46.50894         0.05116
C         47.57756        48.62967        -0.52202
C         46.37110        47.92489        -0.28829
C         47.58099        49.86558        -1.18469
C         46.31548        50.36311        -1.55396
C         47.58805        53.01480        -1.36998
C         46.27654        52.49932        -1.63267
C         47.65809        54.33259        -0.94200
C         46.44459        55.04037        -0.48229
C         47.65287        57.19153        -0.79901
C         46.38984        56.50247        -0.52559
C         47.67382        58.71105        -0.58474
C         46.41818        59.35885        -0.19117
C         47.72870        61.41186         0.25293
C         46.46163        60.75199         0.15195
C         49.01847        37.86902        -0.11017
C         50.36187        39.81522         0.12122
C         49.13567        39.30879        -0.25255
C         50.75977        41.21158         0.10107
C         48.88808        42.34787        -0.39188
C         50.02819        43.95799         1.02175
C         48.90982        43.64404         0.28239
C         50.01424        46.15662         0.95913
C         48.78770        46.67031         0.49451
C         50.10873        48.75387        -0.21686
C         48.80532        48.06281         0.03288
C         50.17392        49.87984        -1.25324
C         48.83421        50.63675        -1.49193
C         50.14581        52.94619        -1.60003
C         48.81590        52.17309        -1.61536
C         50.08473        54.27592        -0.85145
C         48.92179        55.01191        -0.77990
C         50.10062        57.17653        -0.48759
C         48.92157        56.46309        -0.62213
C         50.13979        58.60948        -0.35104
C         48.96552        59.34585        -0.28453
C         50.21399        61.39367         0.30593
C         48.96074        60.75097         0.08758
C         51.55296        41.89242         0.96759
C         52.48137        44.34059         0.62499
C         51.42829        43.39106         1.22224
C         52.46056        45.73352         0.49617
C         51.27924        46.57961         0.52058
C         52.71482        48.62850        -0.20930
C         51.38991        48.00656         0.11245
C         52.65803        49.99239        -0.84322
C         51.41425        50.70886        -1.05534
C         52.57881        52.84415        -1.13349
C         51.38935        52.12122        -1.26616
C         52.62388        54.24467        -0.64462
C         51.32729        54.92756        -0.39973
C         52.61114        57.08389         0.17149
C         51.31546        56.40473        -0.12698
C         52.69421        58.54855        -0.00247
C         51.47103        59.32976        -0.43519
C         52.67981        61.34781         0.38612
C         51.44441        60.72708         0.14994
C         53.72857        46.40473         0.23139
C         55.29479        48.23812         0.09337
C         53.93700        47.74434        -0.06931
C         55.79430        49.48488        -0.26634
C         53.81915        50.72678        -0.98239
C         54.92362        52.79724        -0.39919
C         53.80193        52.15608        -0.97549
C         55.14368        54.19419        -0.40448
C         53.91747        55.05408        -0.73652
C         55.15170        57.05438         0.03527
C         53.89932        56.24806         0.26207
C         55.15533        58.42987         0.17763
C         53.89629        59.18696         0.15966
C         55.13673        61.28154         0.54453
C         53.92156        60.64261         0.30933
C         57.02664        50.17080         0.04082
C         57.86996        52.63279        -0.02232
C         56.94164        51.59659         0.08259
C         57.64306        54.06794         0.07624
C         56.37496        54.78343        -0.10000
C         57.68888        57.02853         0.07507
C         56.38731        56.27774        -0.17052
C         57.61332        58.44631         0.45761
C         56.39918        59.14888         0.36013
C         57.56927        61.21719         0.96390
C         56.37777        60.56583         0.61354
C         58.80854        54.82219         0.32822
C         59.99368        56.91005         0.92730
C         58.86983        56.23603         0.45993
C         60.00178        58.33374         1.10364
C         58.79909        59.09096         0.89686
C         59.98290        61.13833         1.55091
C         58.78096        60.50014         1.13864
C         61.15952        59.01141         1.52935
C         61.14358        60.39894         1.73748
O         46.01731        42.05421        -1.83838
O         50.70350        49.43473        -2.48221
O         35.41049        53.67077         1.70545
O         45.11157        36.32375         2.35909
O         46.20819        51.39463        -2.48492
O         48.77672        51.30396        -2.78347
O         43.62365        50.78714         0.76103
O         52.13389        48.77058         1.15198
O         44.49857        36.92597        -1.11612
O         35.68720        50.31632         1.27532
O         38.77716        51.36713        -1.74336
O         55.63475        51.97032         0.42671
O         33.46310        59.35981        -1.12122
O         45.89784        54.42530         0.74581
O         50.12144        41.95817        -0.90135
O         57.21368        56.76277        -1.28669
O         49.90036        45.07907         1.85537
O         33.15008        54.81809         1.59009
O         52.01300        54.21171         0.70061
O         42.24310        48.43214         1.50399
O         44.46812        39.47573        -1.84258
O         49.38962        49.05648         1.00535
O         40.24193        44.95926         1.85025
O         51.68520        56.72537         1.27065
O         40.98086        58.72915         1.88814
O         55.07420        50.21751        -1.21260
O         47.62502        58.11346        -1.93254
O         36.27022        55.77504        -1.36811
O         43.72399        43.14214        -1.70029
O         43.67830        47.09981        -1.51520
O         54.01694        55.61432        -2.05710
H         54.16483        54.89737        -2.70758
O         48.01828        40.04167        -2.25479
H         47.30211        40.62582        -2.60092
O         54.02232        55.72491         1.59602
H         53.10245        55.56788         1.92462
O         50.35744        53.37035        -2.98420
H         50.07877        52.60739        -3.54510
O         37.54302        61.88758        -0.77768
H         36.63398        62.24410        -0.86144
O         51.70182        43.49519         2.64931
H         51.37330        44.37589         2.94321
O         47.48984        35.25370        -1.43060
H         46.68937        35.71987        -1.75401
O         51.66912        59.52028        -1.88610
H         50.90176        60.02920        -2.22511
O         36.86823        60.55991         2.55900
H         36.13521        60.05170         2.96512
O         29.10240        56.62915         0.13072
H         29.19974        56.46437         1.09083
H         30.13423        57.46082        -1.43526
H         28.13607        58.86419         0.52408
H         30.32160        62.47649         1.48590
H         28.17420        61.23584         1.31502
H         31.84748        52.40815        -0.30356
H         30.55644        54.66732        -0.41556
H         32.76154        62.52487         1.34434
H         34.36005        47.86606        -0.58929
H         32.95279        50.40283        -0.67345
H         35.24150        62.48687         1.50900
H         36.79062        43.78277         0.19889
H         35.56479        45.87426         0.08303
H         37.86374        62.48577         1.20703
H         39.36490        39.46760         0.47140
H         38.05382        41.57232         0.17587
H         40.27481        62.53219         0.71819
H         42.01179        35.56466         1.70391
H         40.67663        37.47305         0.96176
H         42.77875        62.54573         0.52708
H         45.56547        32.31034         2.32190
H         43.39772        33.48207         2.30363
H         45.24928        62.50615         0.57520
H         47.58735        33.29920         1.28576
H         48.74889        35.26716         0.20890
H         47.73655        62.47930         0.52119
H         49.94880        37.29460         0.02511
H         51.08122        39.10245         0.55912
H         50.21687        62.44301         0.64017
H         52.07921        41.33588         1.75665
H         53.47944        43.87917         0.53753
H         52.69886        62.40751         0.68621
H         54.62702        45.78106         0.36622
H         55.96540        47.57936         0.66743
H         55.14872        62.36694         0.72817
H         57.95440        49.63380         0.28291
H         58.92324        52.34031        -0.15410
H         57.55795        62.30208         1.14782
H         59.74326        54.26612         0.50168
H         60.90001        56.34136         1.18541
H         59.98284        62.22343         1.72771
H         62.08634        58.44431         1.69733
H         62.06399        60.90453         2.06182
