         344
 CSIRO Nanostructure Databank - Neutral Graphene Oxide Data Set
C          1.27220         2.51843         1.37971
C          1.11691         3.58455         0.52770
C          2.50907         1.86482         1.51636
C          2.22667         4.05431        -0.37212
C          1.05347         6.41044        -0.25256
C          1.07010         7.75234        -0.27307
C          2.27408         5.59635        -0.51453
C          2.33598         8.53042        -0.56473
C          1.13980        10.70879        -0.01144
C          1.16594        12.06914         0.28914
C          2.32660         9.97895        -0.10932
C          2.38224        12.74287         0.47567
C          1.18782        15.03869         0.68915
C          1.26563        16.40250         0.78682
C          2.37662        14.19336         0.82107
C          2.50421        17.12721         0.67635
C          2.52252        18.54886         0.93850
C          3.66818         2.35720         0.84074
C          3.57403         3.50101         0.01832
C          4.90666         1.67878         1.00385
C          4.79285         4.08980        -0.64483
C          3.58463         6.32252        -0.42841
C          3.52317         7.76642         0.07026
C          4.86701         5.58479        -0.34013
C          4.82375         8.50982        -0.08717
C          3.56432        10.64588         0.04463
C          3.59775        12.03175         0.32544
C          4.82034         9.88322        -0.05180
C          4.93623        12.70420         0.60136
C          3.72236        14.93951         0.69976
C          3.66556        16.36919         0.39085
C          4.93029        14.19204         0.33494
C          4.83377        16.93653        -0.16435
C          3.62104        19.37806         0.99241
C          4.88617        19.00792         0.40451
C          6.10846         2.20033         0.45307
C          6.07599         3.42025        -0.24882
C          7.34592         1.50241         0.62420
C          7.33278         4.08840        -0.70237
C          6.06905         6.26140        -0.24567
C          6.09558         7.72775         0.17540
C          7.32649         5.58371        -0.41565
C          7.31706         8.47029        -0.31052
C          6.07415        10.61792        -0.17085
C          6.11261        12.00385        -0.04553
C          7.26765         9.84400        -0.44739
C          7.28926        12.77906        -0.36828
C          6.09265        14.87544         0.01397
C          6.08677        16.32082        -0.12680
C          7.30618        14.16000        -0.30046
C          7.30536        17.09694        -0.13198
C          6.18302        19.23504         0.79754
C          7.33063        18.49411         0.28678
C          8.58389         2.09309         0.27639
C          8.59406         3.43781        -0.20786
C          9.81590         1.41482         0.45878
C          9.80321         4.13957        -0.31693
C          8.54181         6.26958        -0.52345
C          8.55217         7.72720        -0.53933
C          9.79666         5.55880        -0.57754
C          9.73711         8.39044        -0.77100
C          8.49052        10.58206        -0.83234
C          8.51008        12.07811        -0.83347
C          9.76811         9.85422        -0.60470
C          9.81259        12.79513        -0.68391
C          8.49542        14.95886        -0.80443
C          8.52484        16.40239        -0.31922
C          9.80137        14.22987        -0.57545
C          9.76569        17.07390        -0.20878
C          8.57048        19.13621         0.37540
C          9.79229        18.47993         0.09438
C         11.04755         2.05780         0.19832
C         11.04242         3.45591        -0.13162
C         12.28560         1.36244         0.26652
C         12.27509         4.14583        -0.31998
C         11.03711         6.23200        -0.72966
C         11.00973         7.68430        -1.00700
C         12.27218         5.56271        -0.62424
C         12.30644         8.45802        -0.98811
C         11.03909        10.62023        -0.59131
C         10.99625        12.09326        -0.66296
C         12.32569         9.92655        -0.80710
C         12.30092        12.75226        -0.31391
C         11.00958        14.93753        -0.46031
C         11.01173        16.37784        -0.34369
C         12.26376        14.24845        -0.45899
C         12.23604        17.07181        -0.24424
C         11.02586        19.16980         0.14831
C         12.25023        18.49887        -0.02730
C         13.50366         2.02306         0.02767
C         13.48221         3.42842        -0.22169
C         14.75983         1.30801         0.02471
C         14.75779         4.09795        -0.64301
C         13.54367         6.28624        -0.63050
C         13.57273         7.74074        -0.74707
C         14.73135         5.59862        -0.45545
C         14.76069         8.45932        -0.75802
C         13.50561        10.61754        -0.84931
C         13.47514        12.11932        -1.05811
C         14.77678         9.91661        -0.86116
C         14.77248        12.82384        -0.73333
C         13.47525        14.93385        -0.45011
C         13.48202        16.36701        -0.31586
C         14.73508        14.21138        -0.54025
C         14.70272        17.04986        -0.14605
C         13.49690        19.17983         0.04473
C         14.71955        18.49202        -0.00531
C         15.98972         1.95504        -0.03833
C         15.98808         3.47064         0.01923
C         17.23223         1.29050         0.09421
C         17.25446         4.08877        -0.58624
C         15.98907         6.33750        -0.06028
C         16.02667         7.77714        -0.52110
C         17.28111         5.59770        -0.36156
C         17.20660         8.45578        -0.50663
C         15.97133        10.62769        -0.81149
C         16.00478        12.07856        -0.72187
C         17.27353         9.88312        -1.00208
C         17.22125        12.75036        -0.53143
C         15.95248        14.95417        -0.40459
C         15.93588        16.31867        -0.15509
C         17.24909        14.25067        -0.70929
C         17.16794        17.02287         0.35686
C         15.96835        19.18509         0.05354
C         17.19780        18.51305         0.13341
C         18.46262         2.00155         0.18153
C         18.47045         3.39408        -0.02898
C         19.74372         1.31469         0.32184
C         19.73986         4.08101        -0.16860
C         18.45023         6.28626        -0.38169
C         18.45572         7.76157        -0.00305
C         19.75401         5.57779        -0.44633
C         19.71981         8.49552        -0.35716
C         18.49501        10.62276        -0.52268
C         18.47358        12.03188        -0.40864
C         19.72197         9.89326        -0.41355
C         19.69007        12.72962        -0.18249
C         18.43756        14.95073        -0.11611
C         18.45684        16.30505         0.05730
C         19.67896        14.17976         0.22817
C         19.70979        17.04408         0.18497
C         18.43037        19.17818         0.22946
C         19.68071        18.48923         0.29953
C         20.93890         1.99095         0.44319
C         20.88358         3.49260         0.61874
C         22.22820         1.35719         0.50429
C         22.17179         4.23397         0.42405
C         20.96894         6.31209        -0.10394
C         21.00244         7.74363        -0.55515
C         22.15324         5.61522         0.22806
C         22.23359         8.49753        -0.12922
C         20.97290        10.62156        -0.35042
C         20.94493        12.04878        -0.22914
C         22.20952         9.92757        -0.22248
C         22.17391        12.76053        -0.14717
C         20.91378        14.90623        -0.31645
C         20.91987        16.38672         0.00728
C         22.19113        14.23152         0.19243
C         22.16865        17.09238         0.03587
C         20.90059        19.18139         0.38683
C         22.15351        18.51313         0.29146
C         23.40615         2.06206         0.65795
C         23.40436         3.55177         0.94665
C         24.68065         1.39823         0.66507
C         24.68297         4.25068         0.53843
C         23.38789         6.39533         0.64164
C         23.40965         7.81964         0.14810
C         24.67891         5.65037         0.39842
C         24.65905         8.51628         0.15667
C         23.43209        10.64133        -0.10132
C         23.41832        12.08126        -0.17902
C         24.65979         9.93551         0.02559
C         24.63546        12.80022        -0.19202
C         23.37437        14.96550        -0.40021
C         23.39503        16.42777        -0.17579
C         24.65502        14.21989        -0.58016
C         24.64192        17.10720        -0.09387
C         23.38730        19.18257         0.41365
C         24.61946        18.50654         0.25428
C         25.87031         2.09015         0.60911
C         25.88594         3.52651         0.44858
C         27.18882         1.36681         0.74738
C         27.12611         4.22483         0.22774
C         25.89157         6.36636         0.25770
C         25.89168         7.80784         0.21772
C         27.13189         5.65963         0.17883
C         27.12571         8.51786         0.15085
C         25.89519        10.63989         0.12053
C         25.86051        12.10369         0.18406
C         27.12037         9.95556         0.15984
C         27.18785        12.85824         0.10353
C         25.95224        15.00246        -0.79219
C         25.89232        16.45445        -0.30981
C         27.18129        14.28310        -0.27956
C         27.11222        17.16320        -0.22127
C         25.85492        19.16117         0.47440
C         27.09106        18.54097         0.25902
C         28.28371         2.01276        -0.10579
C         28.33713         3.51387         0.08719
C         29.61928         1.34448         0.09001
C         29.56568         4.21266        -0.00379
C         28.35606         6.37044         0.03787
C         28.35715         7.81002         0.02745
C         29.58847         5.64580        -0.03724
C         29.58059         8.53507        -0.08272
C         28.37005        10.68221         0.05940
C         28.39513        12.06998        -0.07385
C         29.60146         9.93434        -0.03252
C         29.64062        12.77060        -0.54423
C         28.37581        14.96802        -0.28407
C         28.35304        16.41819        -0.39766
C         29.64355        14.26197        -0.24935
C         29.59070        17.02974        -0.53045
C         28.26229        19.27125         0.71703
C         29.53458        19.06044         0.23772
C         30.77582         2.03518         0.06400
C         30.80176         3.48526        -0.04862
C         32.00178         4.17956        -0.16523
C         30.83482         6.32271        -0.18038
C         30.87258         7.81889        -0.41067
C         32.01123         5.58373        -0.25949
C         32.04314         8.52517         0.23591
C         30.86332        10.66050         0.03515
C         30.89465        12.04577        -0.09916
C         32.04410         9.86888         0.35934
C         32.09865        12.82589        -0.02659
C         30.85283        14.94720        -0.20182
C         30.84342        16.41105        -0.20731
C         32.08566        14.19243        -0.11831
C         31.93661        17.19913         0.17230
C         30.81233        19.37630         0.80865
C         31.90897        18.55285         0.62408
O          4.73813        18.20101        -0.74915
O          3.17368        14.53385         2.00987
O         23.71409        14.49096        -1.74058
O         19.96900         4.57985        -1.53614
O         29.62866        18.35155        -0.98119
O         11.66514         8.06950        -2.27773
O          2.94937         6.04121        -1.75631
O         10.39381        10.18023         0.70949
O         26.50656        12.65662         1.40262
O          8.38122        11.32504        -2.09170
O         20.53067         3.70357         2.04259
H         19.67031         3.25348         2.19934
O         18.38507         7.80698         1.46247
H         17.55499         7.33731         1.72788
O          8.31687        15.02378        -2.26194
H          9.11984        15.43921        -2.64157
O         27.60298         1.42428         2.11875
H         26.83018         1.22750         2.68638
O          4.63796         3.96469        -2.12749
H          4.09359         4.75013        -2.40134
O         13.24007        12.32534        -2.48001
H         14.03813        12.03459        -2.96892
O         12.53171        12.47223         1.10522
H         11.68078        12.57444         1.58087
O         29.63346        12.67977        -2.02068
H         30.39284        13.20787        -2.34758
O          2.51243         8.62214        -1.99572
H          2.52199         7.69998        -2.35052
O         20.84520        14.75254        -1.75466
H         21.74943        14.85344        -2.12844
O         14.83548         3.84805        -2.07917
H         14.04532         4.25293        -2.49470
O          5.15398        12.56880         2.05263
H          4.47367        13.14762         2.47835
O         17.06517        16.87804         1.83193
H         16.28997        17.40775         2.11877
O         27.88471         1.77857        -1.49194
H         28.55977         2.19026        -2.07129
O         19.70591        14.16755         1.69944
H         19.26197        14.98345         2.01965
O         23.32734         3.69409         2.42002
H         22.38231         3.53068         2.66323
O         17.44307        14.42709        -2.16954
H         18.38512        14.22488        -2.36600
O         31.06057         7.96880        -1.86292
H         31.02132         8.92871        -2.06292
O         21.14627         7.64697        -2.03761
H         21.91578         7.06678        -2.22360
O          6.17810         7.66292         1.65588
H          6.42493         8.55838         1.97475
O         17.45524         9.77527        -2.46496
H         16.71126         9.24097        -2.81686
O          7.36723         3.97000        -2.17455
H          6.42475         3.98709        -2.48369
O          3.27716         7.67831         1.50236
H          4.15055         7.52119         1.93473
O         15.96904         3.73192         1.44044
H         15.94471         4.70676         1.60760
O         26.17276        15.06887        -2.23584
H         25.28000        15.11592        -2.65185
O         23.28419         6.51227         2.10035
H         23.33966         5.58986         2.46190
O          1.90320         3.52096        -1.70596
H          2.75677         3.29404        -2.14308
O         15.93291         6.44407         1.43742
H         15.10198         6.91860         1.66025
O         22.32196        14.37907         1.62174
H         21.46007        14.10793         2.02815
O         17.32003         3.83439        -2.00980
H         18.22808         4.09503        -2.29879
H          0.40813         2.15585         1.95560
H          0.11374         4.00906         0.38673
H          2.60063         0.98174         2.16336
H          0.10339         5.88901        -0.07030
H          0.12503         8.29060        -0.10900
H          0.16703        10.22400        -0.16628
H          0.21506        12.60962         0.38700
H          0.20451        14.56806         0.54904
H          0.33433        16.98877         0.81362
H          1.57501        18.95437         1.33031
H          4.94108         0.75774         1.60243
H          3.52474        20.35406         1.49257
H          7.33068         0.50029         1.07693
H          6.38525        19.98505         1.57732
H          9.81054         0.36612         0.79078
H          8.60108        20.19397         0.67715
H         12.28377         0.28509         0.48880
H         11.02579        20.25000         0.35780
H         14.72777         0.21043         0.11410
H         13.49866        20.27310         0.16990
H         17.25215         0.19014         0.13167
H         15.95758        20.28592         0.03513
H         19.74332         0.21461         0.27858
H         18.44336        20.27925         0.20653
H         22.27369         0.26327         0.37744
H         20.89069        20.27601         0.50097
H         24.69650         0.29620         0.68063
H         23.39737        20.25805         0.64683
H         27.06480         0.28910         0.43502
H         25.84017        20.20340         0.82734
H         29.62972         0.24751         0.17663
H         28.11296        19.98095         1.54510
H         31.74038         1.51095         0.14674
H         32.95068         3.62547        -0.20459
H         32.97222         6.09573        -0.40741
H         32.94328         7.95158         0.50138
H         32.93809        10.38147         0.74370
H         33.06177        12.31440         0.11410
H         33.03899        14.73698        -0.07869
H         32.89427        16.68352         0.34343
H         30.91775        20.26581         1.44769
H         32.86119        18.90996         1.04828
