         618
 CSIRO Nanostructure Databank - Neutral Graphene Oxide Data Set
C         22.91186        69.95628         0.23163
C         22.91545        71.37081         0.25145
C         21.70628        72.11406         0.25964
C         22.93470        74.20463         0.22965
C         21.72731        73.50918         0.25742
C         25.27608        65.54938         0.15468
C         24.94243        66.85213         0.56832
C         23.97449        67.76422         0.12994
C         25.35918        69.90965         0.35342
C         24.09272        69.19374         0.31360
C         25.38060        71.33724         0.21158
C         24.16549        72.06946         0.22642
C         25.40107        74.19699         0.14888
C         24.17243        73.50666         0.20150
C         27.89416        61.42334        -0.41482
C         27.84607        62.83954         0.11293
C         26.64101        63.54401         0.10416
C         27.81576        65.65140         0.54256
C         26.56476        64.94127         0.35453
C         27.91055        67.08888         0.48877
C         26.77727        67.91683         0.74600
C         27.81697        69.91698        -0.20279
C         26.61844        69.22929         0.31817
C         27.85142        71.38243        -0.09626
C         26.62952        72.05741         0.08590
C         27.85701        74.18756        -0.04362
C         26.62972        73.50077         0.07303
C         30.32481        57.11056        -0.35014
C         30.31253        58.45267        -0.09193
C         29.13038        59.27129        -0.27741
C         30.25564        61.29042         0.69069
C         29.09301        60.59947         0.00370
C         30.34392        62.76976         0.23668
C         29.04620        63.51991         0.38483
C         30.31756        65.63846         0.48959
C         29.04646        64.92956         0.51569
C         30.35569        67.04865         0.28997
C         29.12716        67.74288         0.20246
C         30.39434        69.90635        -0.14189
C         29.12544        69.15813        -0.18574
C         30.34670        71.35428        -0.23013
C         29.09708        72.05904        -0.18641
C         30.31412        74.20697        -0.15511
C         29.09078        73.50276        -0.13994
C         32.77680        52.77567        -0.25497
C         32.76670        54.18621        -0.26837
C         31.54846        54.92900        -0.26965
C         32.79890        57.01974        -0.24815
C         31.55360        56.32458        -0.27969
C         32.77147        58.51896        -0.36896
C         31.58995        59.10470         0.41369
C         32.75500        61.32715         0.34763
C         31.58170        60.61493         0.38236
C         32.80927        62.75225         0.57652
C         31.52632        63.47571         0.91038
C         32.75841        65.65558         0.56462
C         31.54296        64.95130         0.59090
C         32.80762        67.04842         0.33488
C         31.59766        67.76179         0.17278
C         32.87748        69.90979        -0.31647
C         31.58147        69.19651        -0.01889
C         32.81793        71.39812        -0.05067
C         31.56474        72.08515        -0.18066
C         32.77539        74.23460        -0.06183
C         31.55094        73.52693        -0.13508
C         35.22774        48.49357        -0.15707
C         35.21578        49.91725        -0.37023
C         34.01813        50.63251        -0.26003
C         35.23171        52.76083        -0.44730
C         33.98792        52.05259        -0.32582
C         35.24330        54.18360        -0.36975
C         34.01880        54.89203        -0.27294
C         35.26753        57.03938        -0.12828
C         34.01558        56.32452        -0.21675
C         35.24983        58.48224         0.03488
C         34.06852        59.18115        -0.01437
C         35.22129        61.25666         0.78247
C         34.07489        60.69074        -0.05275
C         35.27818        62.76607         0.71054
C         34.02264        63.43641         0.67942
C         35.27573        65.63375         1.08145
C         33.99058        64.90060         0.91815
C         35.27734        67.08811         0.90530
C         34.15769        67.71842         0.11108
C         35.21826        69.94236         0.51818
C         34.10903        69.22707         0.23240
C         35.20889        71.43067         0.72217
C         33.97717        72.11130         0.18954
C         35.24474        74.21687         0.11150
C         33.99702        73.55141         0.10709
C         37.74551        44.28178         0.07077
C         37.64633        45.65931         0.25079
C         36.42875        46.34040         0.07250
C         37.67613        48.37838        -0.54430
C         36.39449        47.74339        -0.14821
C         37.67620        49.83487        -0.89158
C         36.43775        50.62457        -0.66496
C         37.68436        52.79528        -0.87326
C         36.43784        52.02332        -0.66687
C         37.70479        54.23858        -0.55137
C         36.49458        54.91548        -0.37563
C         37.73665        57.06405        -0.15756
C         36.48224        56.34850        -0.20776
C         37.74458        58.47299         0.07363
C         36.51575        59.19523         0.19914
C         37.74479        61.28875         0.60087
C         36.52291        60.56782         0.45939
C         37.72305        62.69273         0.90307
C         36.50939        63.43885         0.90740
C         37.73469        65.59941         1.13642
C         36.56165        64.89479         1.04613
C         37.80609        67.08794         1.43092
C         36.47508        67.81679         1.24857
C         37.74346        69.93372         0.52649
C         36.49348        69.29952         0.94317
C         37.71173        71.35462         0.22004
C         36.49747        72.08923         0.29617
C         37.70429        74.18703        -0.08092
C         36.48407        73.50300         0.10716
C         40.43328        40.20259        -0.71022
C         39.89477        41.25105         0.01775
C         38.92869        42.23735        -0.30332
C         40.15930        44.26379         0.69913
C         38.95049        43.54690         0.23468
C         40.16529        45.66901         0.69256
C         38.86990        46.45056         0.65779
C         40.20874        48.50928        -0.01865
C         38.97488        47.70308        -0.19007
C         40.20737        49.85752        -0.31686
C         39.02135        50.55054        -0.86745
C         40.24125        52.78966        -0.60138
C         38.99830        52.05080        -0.89382
C         40.19346        54.23639        -0.63028
C         38.96232        54.93279        -0.53810
C         40.19140        57.07023        -0.22147
C         38.95640        56.35853        -0.31920
C         40.19130        58.44443         0.08957
C         38.98036        59.17472         0.22574
C         40.20950        61.32353         0.62980
C         38.97715        60.58899         0.48951
C         40.24443        62.67200         0.89862
C         38.99117        63.36334         1.19422
C         40.28072        65.61212         0.99146
C         39.02550        64.90522         1.29954
C         40.22746        67.04221         0.70334
C         38.97348        67.77179         0.70363
C         40.13879        69.80476        -0.16374
C         38.92471        69.14810         0.39412
C         40.16626        71.32023        -0.44225
C         38.91482        72.05284        -0.03079
C         40.16425        74.17823        -0.24568
C         38.93466        73.48390        -0.11299
C         43.20913        36.25151        -1.37788
C         43.10187        37.59073        -0.88918
C         41.87907        38.27890        -0.95689
C         42.79962        40.17285         0.30539
C         41.68173        39.55110        -0.38590
C         42.76259        41.51096         0.81284
C         41.54508        42.20009         1.01421
C         42.63669        44.33593         1.11061
C         41.42331        43.59631         0.92549
C         42.60975        45.75948         1.08475
C         41.38262        46.43639         0.80785
C         42.60434        48.60712         0.59267
C         41.38913        47.85613         0.52388
C         42.65472        49.97140         0.29152
C         41.34344        50.71038         0.20295
C         42.72013        52.74367        -0.68580
C         41.40619        52.09526        -0.37933
C         42.67558        54.24315        -0.52486
C         41.44007        54.94511        -0.53268
C         42.67603        57.04777        -0.36274
C         41.43925        56.35655        -0.37235
C         42.71279        58.48350        -0.16674
C         41.47869        59.12279         0.33208
C         42.69521        61.37861         0.27839
C         41.48872        60.58893         0.60163
C         42.73383        62.72530         0.53622
C         41.54581        63.39510         1.20851
C         42.73093        65.57141         0.75895
C         41.48942        64.89472         0.91303
C         42.71071        67.04289         0.81138
C         41.43551        67.72999         0.56159
C         42.72435        69.88936         0.04840
C         41.45826        69.10580         0.04797
C         42.71744        71.30506         0.00302
C         41.41407        71.99492         0.13123
C         42.71729        74.19645        -0.00528
C         41.42214        73.53828         0.10416
C         45.74115        33.52949        -1.71484
C         44.52129        34.21897        -1.79288
C         45.69927        36.35734        -1.18774
C         44.42386        35.57604        -1.41227
C         45.51785        37.57530        -0.31389
C         44.23422        38.23496        -0.28982
C         45.22172        40.17235         0.88781
C         44.07489        39.51670         0.29575
C         45.18174        41.50162         1.27630
C         43.95376        42.24636         1.13921
C         44.96945        44.43164         1.99856
C         43.85691        43.63119         1.35987
C         45.05337        45.82194         1.41455
C         43.87203        46.47654         1.16381
C         45.12364        48.68243         1.01252
C         43.80453        47.98116         1.25598
C         45.10287        50.08929         0.73376
C         43.89598        50.71512         0.34403
C         45.13733        52.79908        -0.15186
C         43.92934        52.09564        -0.05565
C         45.17753        54.29405        -0.11611
C         43.87840        54.95037        -0.46733
C         45.20227        57.07747        -0.35664
C         43.88409        56.35039        -0.46701
C         45.06832        58.47889        -0.96809
C         43.85389        59.19331        -0.38891
C         45.09714        61.42057        -0.55973
C         43.80595        60.66886        -0.37501
C         45.12937        62.79241        -0.02854
C         43.97376        63.46277         0.37905
C         45.19222        65.64230         0.43682
C         43.97843        64.90012         0.60625
C         45.22363        67.04327         0.27839
C         43.99779        67.80200         0.54846
C         45.17342        69.91635        -0.00219
C         43.94923        69.21758         0.14090
C         45.16804        71.33708        -0.04939
C         43.92619        72.03423         0.02446
C         45.17701        74.16909         0.04461
C         43.92523        73.49151         0.03321
C         46.88280        34.13235        -1.19048
C         47.94928        36.07707        -0.13730
C         46.87017        35.49284        -0.77395
C         47.89210        37.42670         0.35796
C         46.59993        38.10168         0.35685
C         47.70714        40.05058         1.59863
C         46.45336        39.37102         1.09964
C         47.69878        41.52162         1.80813
C         46.36354        42.18129         1.87126
C         47.57944        44.44579         2.23381
C         46.28785        43.66570         2.13881
C         47.62516        45.84307         1.72037
C         46.37425        46.48563         1.12033
C         47.58463        48.73263         1.25724
C         46.30513        47.99627         1.23129
C         47.63373        50.11946         0.76946
C         46.36695        50.91661         0.88487
C         47.60385        52.85205        -0.20862
C         46.39015        52.18754         0.09004
C         47.60290        54.13350        -0.81475
C         46.39007        54.92185        -0.77515
C         47.53226        57.08000        -1.48858
C         46.37570        56.29312        -0.91788
C         47.61045        58.52067        -1.01352
C         46.36584        59.25770        -0.86898
C         47.58615        61.38289        -0.95440
C         46.34942        60.62802        -0.72202
C         47.56996        62.89042        -0.73466
C         46.43769        63.41758         0.12510
C         47.67702        65.67101        -0.06572
C         46.47803        64.94143         0.36447
C         47.64817        67.05249        -0.26859
C         46.41014        67.75770        -0.05115
C         47.62143        69.90132        -0.28133
C         46.40968        69.18901        -0.10219
C         47.63044        71.33551        -0.20307
C         46.41391        72.04306        -0.08521
C         47.65300        74.15857         0.12379
C         46.41076        73.48319         0.01929
C         49.03024        38.05868         0.82780
C         50.16568        40.06432         1.66729
C         49.01931        39.40014         1.34967
C         50.17133        41.43872         2.27882
C         48.85509        42.18430         2.09166
C         50.18728        44.36131         2.09512
C         48.88025        43.65406         2.33808
C         50.13699        45.81689         1.73508
C         48.82017        46.47562         1.52801
C         50.06956        48.61300         0.75522
C         48.86977        47.94530         1.28232
C         50.06406        49.96899         0.51635
C         48.83243        50.73449         0.51820
C         50.13027        52.72750        -0.34199
C         48.88289        52.24750         0.35031
C         50.16517        53.97160        -1.19778
C         48.86092        54.77784        -1.26311
C         50.13178        57.03926        -1.19125
C         48.87131        56.30255        -1.44052
C         50.11037        58.41954        -0.98639
C         48.84111        59.14739        -0.95535
C         50.15984        61.34548        -0.82050
C         48.88791        60.61977        -1.02528
C         50.15920        62.72353        -0.69428
C         48.91956        63.43793        -0.31875
C         50.13607        65.60484        -0.71364
C         48.94812        64.92856        -0.13344
C         50.08171        67.07020        -0.97969
C         48.84825        67.80756        -0.58341
C         50.09614        69.97824        -0.89490
C         48.84015        69.19117        -0.54299
C         50.11395        71.36466        -0.29258
C         48.88464        72.04497        -0.15214
C         50.13514        74.11913         0.23194
C         48.87682        73.46080         0.07907
C         51.36874        42.21510         1.78516
C         52.59797        44.29581         1.37564
C         51.40243        43.58574         1.72052
C         52.60931        45.66555         1.04797
C         51.29178        46.35106         0.94111
C         52.53903        48.42882         0.18483
C         51.26822        47.78411         0.49612
C         52.47793        49.83796        -0.20970
C         51.38936        50.69531         0.41627
C         52.56942        52.68875        -0.55589
C         51.29642        52.03335        -0.27076
C         52.56745        54.14837        -0.62345
C         51.40017        54.81180        -0.88183
C         52.49522        57.00047        -0.35809
C         51.45829        56.28273        -1.25336
C         52.61175        58.43328        -0.81341
C         51.33775        59.18630        -0.85620
C         52.62434        61.32353        -0.65904
C         51.38043        60.58593        -0.80172
C         52.61334        62.71826        -0.59839
C         51.39393        63.46668        -0.64894
C         52.63621        65.61405        -0.80768
C         51.41040        64.86851        -0.67301
C         52.64425        67.05104        -0.86312
C         51.38894        67.82682        -1.21235
C         52.63990        69.92461        -0.51315
C         51.33414        69.16007        -0.46427
C         52.61640        71.31462        -0.25883
C         51.34997        72.02682        -0.12280
C         52.61380        74.19303         0.41501
C         51.33386        73.42870         0.17004
C         53.77472        46.35391         0.68543
C         54.97406        48.38993        -0.09365
C         53.77505        47.72795         0.23794
C         55.02814        49.71441        -0.82916
C         53.72589        50.50692        -0.70788
C         55.01240        52.61432        -0.17057
C         53.74901        51.97497        -0.58010
C         55.03384        54.08952        -0.01281
C         53.90503        54.86077        -0.67530
C         54.98807        56.99235         0.04426
C         53.83675        56.31178        -0.26465
C         55.10492        58.43416        -0.11939
C         53.90371        59.15135        -0.62202
C         55.08752        61.28149        -0.47773
C         53.88888        60.62433        -0.56073
C         55.16021        62.74964        -0.46321
C         53.85798        63.49095        -0.49415
C         55.08660        65.63141        -1.10633
C         53.83692        64.91384        -0.83713
C         55.11008        67.07299        -0.82907
C         53.85311        67.76171        -0.75530
C         55.11022        69.87934        -0.47073
C         53.85355        69.20556        -0.60584
C         55.09603        71.29303        -0.21839
C         53.86097        72.00609        -0.11075
C         55.08945        74.07371         0.31603
C         53.88581        73.40975         0.17881
C         56.27185        50.52760        -0.52167
C         57.51021        52.65803        -0.31294
C         56.29350        51.88054        -0.29191
C         57.61758        54.04849        -0.14120
C         56.35959        54.78097         0.26710
C         57.45128        57.07639         0.58670
C         56.23301        56.28851         0.44923
C         57.59324        58.42032         0.17508
C         56.31764        59.09329        -0.09364
C         57.65748        61.25910        -0.39907
C         56.34542        60.56276        -0.22050
C         57.67571        62.63876        -1.00622
C         56.38355        63.38160        -1.05146
C         57.65438        65.60318        -1.00380
C         56.39048        64.87425        -1.22033
C         57.59590        66.99662        -0.88467
C         56.34685        67.73471        -0.76511
C         57.57881        69.85531        -0.29978
C         56.34434        69.16318        -0.53487
C         57.55976        71.25948        -0.03439
C         56.32897        71.97744        -0.01791
C         57.55847        74.05681         0.45483
C         56.33636        73.38627         0.23767
C         58.85499        54.68029        -0.48372
C         60.11833        56.95789        -0.51450
C         59.25764        55.98468        -0.07329
C         60.17858        58.30321         0.22221
C         58.85335        59.03630        -0.01530
C         60.16938        61.18641        -0.75365
C         58.88087        60.41456        -0.56915
C         60.16870        62.68518        -0.79139
C         58.94004        63.42455        -0.98289
C         60.16553        65.56505        -1.09511
C         58.89067        64.82874        -1.00791
C         60.17444        67.05903        -0.92627
C         58.85053        67.78861        -0.86633
C         60.03699        69.82138        -0.02278
C         58.82466        69.17013        -0.34871
C         59.98155        71.19899         0.33156
C         58.78095        71.93499         0.24919
C         60.00275        74.05334         0.74430
C         58.78030        73.36453         0.48883
C         61.40065        59.11723        -0.13486
C         62.61889        61.23261        -0.26085
C         61.42124        60.47512        -0.38140
C         62.61482        62.64346        -0.31820
C         61.37632        63.34781        -0.60870
C         62.62512        65.54829        -0.34338
C         61.45102        64.80132        -0.83065
C         62.58127        66.95904        -0.17830
C         61.37256        67.71294        -0.36874
C         62.51451        69.74931         0.32980
C         61.31395        69.08963        -0.02511
C         62.47592        71.14336         0.79991
C         61.17578        71.89375         0.83238
C         62.43864        74.03301         1.18256
C         61.21229        73.37517         0.89357
C         63.79148        63.38367        -0.09489
C         64.99083        65.50745         0.29725
C         63.80895        64.81168        -0.04641
C         65.00259        66.91497         0.40115
C         63.77950        67.63874         0.20518
C         64.97160        69.72105         0.72349
C         63.76342        69.05158         0.38668
C         65.00488        71.19225         0.79770
C         63.72146        71.95078         0.76652
C         64.91328        74.02458         1.40879
C         63.67861        73.37105         1.20299
C         66.20080        67.62399         0.70058
C         67.43568        69.76885         1.02047
C         66.20245        69.01762         0.84664
C         67.45650        71.13146         1.23277
C         66.15139        71.82967         1.53894
C         67.38188        73.99820         1.47149
C         66.15171        73.33847         1.41867
C         68.65716        71.90690         1.29535
C         68.60561        73.28307         1.43049
O         59.48602        60.55517        -1.89554
O         48.35767        48.60114         2.51022
O         50.92983        46.64513        -0.44172
O         54.66147        63.32827         0.77981
O         46.13262        42.70856         3.23158
O         48.84977        55.39886        -2.61089
O         45.34849        54.50804         1.30356
O         41.25170        72.69965         1.35453
O         46.71440        63.94463         1.43089
O         38.42929        47.56620        -1.52189
O         34.43847        65.23878         2.29341
O         49.82315        66.12193        -2.08016
O         40.42930        41.42964         1.31378
O         36.35210        68.86305         2.36090
O         38.39479        52.54090        -2.13896
O         44.17149        61.23576        -1.69950
O         28.36925        69.38669        -1.45558
O         48.22062        44.18533         3.52375
O         40.75077        69.09873        -1.28960
O         49.14327        64.03016         1.00324
O         56.21172        55.34235         1.59809
O         53.48875        58.63993        -1.96078
O         56.88640        62.69521        -2.24131
O         48.19449        61.08816        -2.26165
O         39.05973        64.06417         2.50095
O         46.85472        39.29993         2.52030
O         58.49141        56.37516         1.11234
O         50.47582        45.40496         3.08672
O         41.62883        59.63962         1.71761
O         55.67679        65.28074        -2.43218
O         59.62696        67.71838        -2.12169
O         54.71727        53.27587         1.14346
O         38.43949        50.04557        -2.11178
O         61.73663        71.28224         2.06195
O         52.69231        50.04810        -1.65337
O         61.02802        65.16064        -2.20141
O         57.09378        61.19354         0.93214
O         64.53674        71.80619        -0.44905
O         25.79783        67.37336         1.57273
O         43.49318        67.62389         1.92815
O         47.29952        63.48686        -2.03598
H         47.68152        62.88289        -2.71665
O         40.97824        50.97029         1.62458
H         41.24082        50.18158         2.14889
O         34.30528        61.06296        -1.43823
H         33.57864        60.65068        -1.96086
O         54.28297        54.91679        -2.08670
H         53.57875        55.43792        -2.55400
O         65.86789        71.54611         2.95007
H         66.60497        71.91601         3.48020
O         44.78655        58.29928        -2.37767
H         44.74623        59.19235        -2.78454
O         30.00176        61.15491         2.11260
H         30.52908        61.85495         2.57502
O         33.03302        69.78576        -1.78903
H         32.20472        70.11442        -2.20193
O         30.64080        62.75016        -1.18415
H         29.82459        62.45885        -1.65693
O         35.12919        71.61659         2.18305
H         35.64146        70.89028         2.60487
O         51.94385        56.35427        -2.62513
H         51.23562        56.00729        -3.20931
O         38.18778        67.14863         2.82935
H         37.71698        67.92576         3.21589
O         55.16703        49.32801        -2.23574
H         54.24981        49.20388        -2.57669
O         46.37542        51.45223         2.27247
H         45.77369        52.23461         2.29026
O         45.51005        57.19123         1.05539
H         45.47065        56.24263         1.40733
O         52.62448        75.40454        -0.35767
H         52.60558        75.16051        -1.30575
O         27.97656        61.56506        -1.85939
H         28.04819        60.66794        -2.24815
O         48.96300        52.76043         1.72545
H         48.15104        52.43766         2.19300
O         38.64788        46.92981         2.02147
H         38.64555        46.15315         2.61967
O         50.34706        41.27235         3.72268
H         50.14072        42.13092         4.15103
O         34.48961        67.44329        -1.30261
H         34.00642        68.12174        -1.83715
O         51.81529        50.92359         1.78871
H         51.13294        51.48035         2.22424
O         51.13606        68.79188         0.92932
H         51.17917        69.60730         1.47206
O         50.39567        53.44313        -2.54184
H         50.04344        54.10229        -3.18263
O         51.50077        68.05471        -2.64416
H         51.14939        67.24067        -3.07734
O         46.57404        46.23884        -0.33285
H         45.79911        46.60694        -0.81016
O         46.06148        36.88453        -2.51701
H         46.18183        36.11144        -3.10871
O         40.25201        71.50111        -1.88276
H         40.53480        70.63347        -2.26268
O         31.74258        58.74969         1.81018
H         31.08862        59.28836         2.31273
O         50.08217        70.23476        -2.31911
H         50.50104        69.46482        -2.78074
O         60.35230        58.11113         1.65190
H         59.73838        57.39511         1.93911
O         51.95773        57.04381         0.98857
H         52.01955        56.14801         1.38305
O         32.51113        58.85398        -1.78151
H         33.11127        58.30374        -2.32880
O         41.74938        63.27979         2.64331
H         40.92039        63.60129         3.07231
O         34.90787        60.93489         2.17176
H         35.64344        61.25957         2.73287
O         42.91461        52.50322        -2.13879
H         42.13732        52.87914        -2.60642
O         31.36654        63.39603         2.36479
H         32.16329        63.79933         2.77442
O         47.21245        57.25832        -2.90145
H         47.41467        56.40631        -3.35159
O         44.52523        44.69052         3.37357
H         44.77524        43.89428         3.89945
O         43.52922        48.21012         2.68760
H         44.18770        47.69767         3.20613
H         22.93964        75.30395         0.22276
H         25.40375        75.29724         0.13299
H         27.85676        75.28777        -0.04117
H         30.30313        75.30605        -0.11393
H         32.76619        75.33349        -0.10500
H         35.26708        75.31206         0.00846
H         37.70464        75.28244        -0.17876
H         40.16124        75.24548        -0.51155
H         42.73413        75.28161        -0.18505
H         45.18000        75.26795         0.10021
H         47.66082        75.25114         0.25424
H         50.15261        75.20425         0.41173
H         52.61494        74.52001         1.49320
H         55.08701        75.15269         0.52930
H         57.54878        75.14107         0.64059
H         59.97956        75.14902         0.84249
H         62.41435        75.11709         1.37267
H         64.91799        75.11927         1.53056
H         67.40694        75.09774         1.48787
H         21.94565        69.43298         0.17676
H         20.74696        71.57717         0.27279
H         20.78002        74.06635         0.27242
H         24.52794        64.96064        -0.39802
H         23.09740        67.39907        -0.42550
H         26.94041        60.87787        -0.16331
H         25.71283        63.00638        -0.14236
H         29.39299        56.59464        -0.63186
H         28.24666        58.78858        -0.73074
H         31.82467        52.22759        -0.19739
H         30.59247        54.38449        -0.27383
H         34.27405        48.00284         0.08986
H         33.07808        50.08568        -0.09316
H         36.85499        43.73533        -0.27610
H         35.49015        45.76626         0.03098
H         39.91934        39.86840        -1.62409
H         38.11267        41.98830        -0.99948
H         42.28997        35.73245        -1.69150
H         41.03537        37.79957        -1.47545
H         45.77663        32.47019        -2.00554
H         43.61063        33.67989        -2.09302
H         47.79371        33.53580        -1.03446
H         48.86710        35.49328         0.03333
H         49.99549        37.53291         0.77628
H         51.13869        39.57135         1.51744
H         52.28614        41.64764         1.56541
H         53.53563        43.72435         1.30439
H         54.73821        45.82501         0.73365
H         55.91435        47.81986        -0.03922
H         57.22779        49.99754        -0.65811
H         58.43837        52.10504        -0.52927
H         59.60718        54.04183        -0.97366
H         60.61444        56.86175        -1.48929
H         62.35784        58.63207         0.11408
H         63.55715        60.70901        -0.02524
H         64.72671        62.84192         0.10911
H         65.91263        64.94111         0.49525
H         67.14335        67.06398         0.78886
H         68.38592        69.22145         0.92056
H         69.62698        71.40046         1.18305
H         69.54492        73.85365         1.45665
