         344
 CSIRO Nanostructure Databank - Neutral Graphene Oxide Data Set
C          1.21354         2.18859        -0.18500
C          1.19143         3.56489         0.05104
C          2.41714         1.49351        -0.23603
C          2.38557         4.29841         0.25327
C          1.15481         6.46908         0.52816
C          1.12042         7.79297         0.83147
C          2.37683         5.71371         0.49067
C          2.34437         8.55414         1.24365
C          1.19063        10.70362         0.51225
C          1.19049        12.05487         0.19684
C          2.38290         9.99879         0.75899
C          2.38815        12.81427         0.19018
C          1.24963        14.92992        -0.63937
C          1.21548        16.28929        -0.71356
C          2.38396        14.20713        -0.10433
C          2.38414        17.12680        -0.22490
C          2.49050        18.52213        -0.79406
C          3.64162         2.17574        -0.02837
C          3.63223         3.58180         0.23373
C          4.88044         1.49190        -0.13831
C          4.87113         4.25498         0.43661
C          3.61216         6.42860         0.68176
C          3.61360         7.79821         0.94278
C          4.86872         5.68813         0.58846
C          4.88833         8.54291         1.25420
C          3.61605        10.69303         0.67206
C          3.62982        12.11483         0.45245
C          4.86886        10.00711         0.83209
C          4.86914        12.79995         0.45529
C          3.57644        14.99451         0.17771
C          3.66100        16.34039        -0.51232
C          4.89923        14.26585         0.45328
C          4.93944        17.08651        -0.25916
C          3.68086        19.15750        -0.84423
C          4.94865        18.50715        -0.51126
C          6.10894         2.10852         0.11650
C          6.10032         3.51989         0.47690
C          7.31111         1.37302        -0.24425
C          7.30526         4.26977         0.65690
C          6.07357         6.39546         0.56685
C          6.11418         7.83284         0.73800
C          7.31527         5.68352         0.50893
C          7.28116         8.51698         0.57189
C          6.07257        10.68863         0.71779
C          6.10335        12.10584         0.51537
C          7.36056         9.95394         1.01482
C          7.34854        12.82243         0.45670
C          6.15336        14.97399         0.17637
C          6.12204        16.37791        -0.06165
C          7.37593        14.24209         0.24592
C          7.40792        17.07801        -0.40839
C          6.12763        19.23036        -0.42351
C          7.39360        18.57483        -0.19196
C          8.57021         1.64275         0.27073
C          8.56935         3.69159         0.94384
C          9.86612         1.38444        -0.24705
C          9.79019         4.29154         0.68588
C          8.54607         6.35801         0.34587
C          8.49900         7.80892         0.12762
C          9.79052         5.67987         0.35505
C          9.80449         8.54458         0.04230
C          8.61238        10.67772         0.58515
C          8.58954        12.10991         0.55106
C          9.81106         9.98492         0.37011
C          9.81274        12.82092         0.57199
C          8.63124        14.93786         0.20819
C          8.64455        16.38392         0.08831
C          9.83998        14.22888         0.43507
C          9.80869        17.09909         0.17963
C          8.54834        19.26523         0.03508
C          9.83265        18.58909         0.44736
C         11.02924         2.10876         0.11528
C         11.05033         3.46924         0.87467
C         12.26668         1.51789        -0.18202
C         12.29342         4.26402         0.50103
C         11.03687         6.37640         0.17760
C         11.07215         7.78502         0.09368
C         12.26757         5.60040         0.19862
C         12.29223         8.51995         0.04820
C         11.06755        10.64145         0.41118
C         11.06409        12.06692         0.74779
C         12.28830         9.95804         0.19044
C         12.39053        12.81249         0.67652
C         11.11613        14.92340         0.39890
C         11.08302        16.37091         0.08257
C         12.31944        14.26357         0.44928
C         12.33811        17.14874        -0.06306
C         11.10156        19.28982         0.00842
C         12.31985        18.63944        -0.06037
C         13.52528         2.10842         0.07996
C         13.59690         3.51044         0.65222
C         14.71041         1.40470        -0.08353
C         14.82223         4.23429         0.14790
C         13.49745         6.31754        -0.32466
C         13.53245         7.81273        -0.08417
C         14.80983         5.64144        -0.02395
C         14.73412         8.49787        -0.22429
C         13.52350        10.69667         0.07089
C         13.58886        12.07826         0.22794
C         14.70929         9.97717        -0.52538
C         14.80779        12.82505        -0.02576
C         13.61769        14.97682         0.42058
C         13.62238        16.46545         0.26138
C         14.84842        14.23039         0.08445
C         14.85372        17.14769        -0.14793
C         13.58074        19.28105        -0.23417
C         14.80512        18.56193        -0.31942
C         15.98671         2.05998         0.00220
C         16.00594         3.51180        -0.00062
C         17.18636         1.36613        -0.04745
C         17.24239         4.19326        -0.28545
C         16.00845         6.35124        -0.15778
C         15.99785         7.80645        -0.24433
C         17.25473         5.64317        -0.26875
C         17.19813         8.51693        -0.23108
C         16.01768        10.68694        -0.30148
C         16.03461        12.10357        -0.24322
C         17.22112         9.96181        -0.25848
C         17.27202        12.80710        -0.33349
C         16.05076        14.95890        -0.16075
C         16.04928        16.40531        -0.25049
C         17.27148        14.25147        -0.38773
C         17.26784        17.10581        -0.49554
C         16.04921        19.23197        -0.52790
C         17.24173        18.53288        -0.59393
C         18.44499         2.04365        -0.22259
C         18.41960         3.47430        -0.46038
C         19.63792         1.33429        -0.16407
C         19.66210         4.18471        -0.93296
C         18.46857         6.34278        -0.33059
C         18.47028         7.78196         0.11223
C         19.69317         5.67044        -0.59887
C         19.72845         8.54756        -0.19852
C         18.46948        10.66547        -0.20999
C         18.49488        12.07596        -0.33913
C         19.71251         9.92352        -0.17061
C         19.76121        12.77519        -0.52637
C         18.47455        14.96056        -0.63482
C         18.49156        16.37291        -0.63835
C         19.71962        14.20261        -1.04092
C         19.74267        17.09170        -0.64742
C         18.51694        19.30410        -0.84094
C         19.76635        18.51258        -0.54202
C         20.92002         1.95667        -0.63188
C         20.90637         3.45827        -0.49023
C         22.21618         1.31440        -0.19981
C         22.15937         4.12245        -0.69837
C         20.89944         6.37343        -0.65664
C         20.96713         7.80502        -0.39588
C         22.17111         5.64894        -0.83739
C         22.17137         8.48056        -0.45953
C         20.97068        10.70327         0.14851
C         20.96059        12.11444        -0.41762
C         22.25250         9.92279        -0.15060
C         22.22786        12.80028        -0.67902
C         20.99682        14.95549        -0.74403
C         20.97370        16.36933        -0.59265
C         22.22057        14.26449        -0.74166
C         22.18675        17.06933        -0.32530
C         20.93911        19.17775        -0.21794
C         22.16694        18.47075        -0.04778
C         23.38418         2.01323        -0.09975
C         23.36119         3.52263        -0.00182
C         24.66625         1.37335         0.07145
C         24.66201         4.21789        -0.30862
C         23.42885         6.33804        -0.60760
C         23.39939         7.78086        -0.99741
C         24.65104         5.63348        -0.50135
C         24.70815         8.49148        -0.80472
C         23.49165        10.66544        -0.53583
C         23.41853        12.12563        -0.75869
C         24.69153         9.96334        -1.14312
C         24.68939        12.84376        -1.15913
C         23.45008        14.96659        -0.60698
C         23.42826        16.37056        -0.32906
C         24.71209        14.25992        -0.60424
C         24.61862        17.05681         0.00594
C         23.34730        19.10000         0.40716
C         24.56047        18.38925         0.47625
C         25.85379         2.07420         0.01911
C         25.87649         3.52261        -0.22011
C         27.10509         1.40521         0.27585
C         27.10723         4.22527        -0.31448
C         25.89320         6.34833        -0.53858
C         25.87758         7.79162        -0.69600
C         27.11941         5.63722        -0.43580
C         27.18126         8.53547        -0.90085
C         25.94586        10.71838        -0.73895
C         25.95037        12.06678        -0.82004
C         27.14857         9.93284        -0.27174
C         27.24377        12.85332        -0.89005
C         25.88008        14.90298        -0.27428
C         25.94839        16.40483        -0.23501
C         27.17057        14.18136        -0.16191
C         27.08802        16.94439         0.60046
C         25.71859        18.91553         1.17185
C         26.86918        18.18638         1.31473
C         28.30680         2.05860         0.21676
C         28.40299         3.44975        -0.36438
C         29.52752         1.41628         0.64777
C         29.58815         4.21899         0.16099
C         28.36633         6.38923        -0.35423
C         28.39352         7.75781        -0.45085
C         29.69729         5.66772        -0.23928
C         29.63396         8.50511        -0.26889
C         28.45510        10.67105        -0.49496
C         28.47611        12.07388        -0.52637
C         29.64566         9.92449        -0.47291
C         29.71542        12.80949        -0.47267
C         28.45770        14.92671         0.10280
C         28.34310        16.37231         0.51626
C         29.71598        14.23981        -0.33274
C         29.48912        17.16018         1.00343
C         27.87578        18.53106         2.38265
C         29.27526        18.21427         1.92781
C         30.67091         2.13107         0.84199
C         30.69844         3.56668         0.63219
C         31.92700         4.31878         0.89431
C         30.65658         6.43251         0.67769
C         30.78831         7.87052         0.21513
C         31.94886         5.66451         0.85491
C         31.94640         8.66636         0.52180
C         30.97009        10.58907        -0.73067
C         30.93516        12.09786        -0.63785
C         32.04787         9.96401         0.12568
C         32.12604        12.79911        -0.84009
C         30.93769        14.89379        -0.57093
C         30.79227        17.05143         0.46783
C         32.11988        14.19180        -0.85738
C         31.85113        17.85585         0.91261
C         30.33665        18.99750         2.39430
C         31.63249        18.80422         1.91013
O         23.29621        10.24811         0.86537
O         22.29522         4.74086        -2.04628
O          8.57755         2.39402         1.47538
O         11.83426        12.39112         1.96223
O         11.70607        16.61061        -1.28020
O         13.72685        15.87949         1.60441
O          9.01442         8.25981        -1.18549
O          4.09978        14.90211         1.52081
O         27.75979        14.12602         1.17222
O         31.06834        16.27902        -0.65726
O         20.90015         1.72192        -2.10020
H         20.23524         2.35605        -2.47696
O          9.85096        18.69687         1.92475
H         10.71783        18.36278         2.24022
O         28.69987         3.27539        -1.81392
H         29.38782         2.57805        -1.87954
O          2.25127        17.26452         1.21333
H          1.43218        17.76700         1.40073
O          7.48996        16.91161        -1.87797
H          8.35993        17.26493        -2.16547
O          2.27867         8.67447         2.73737
H          2.03887         7.78669         3.08155
O          7.46759         9.90938         2.48038
H          6.63855         9.47975         2.81779
O         23.09190         3.81881         1.41384
H         23.82210         3.43488         1.94407
O         27.55245        17.75628         3.55950
H         27.60970        16.80813         3.31756
O         27.30689         8.75494        -2.34377
H         27.46221         7.88333        -2.76606
O         13.36489         6.19755        -1.79353
H         14.15416         6.62031        -2.19549
O         27.00043         9.72981         1.15623
H         26.94449        10.60731         1.58914
O         24.64323        13.02568        -2.60638
H         25.56190        13.26697        -2.88014
O         20.90203        10.86208         1.60075
H         21.83705        10.88062         1.91694
O          3.66078        16.06554        -1.94883
H          4.58732        16.07701        -2.27028
O          5.01098         8.57108         2.72640
H          4.11184         8.82195         3.06574
O         30.26505         5.65919        -1.58387
H         29.76252         4.97545        -2.08891
O         30.01477         6.48203         1.98686
H         30.55824         7.05115         2.57035
O         18.50386        20.54652        -0.12904
H         18.40681        20.35077         0.82522
O         23.22051         7.75135        -2.47542
H         22.68339         6.95987        -2.70011
O         27.39339        13.20204        -2.31693
H         27.71131        12.40002        -2.78546
O         18.46877         7.71019         1.59476
H         18.61907         8.61987         1.93273
O         19.65000         4.10776        -2.41946
H         20.54153         4.44742        -2.69636
O         31.34120        10.27719        -2.12758
H         31.34913         9.29897        -2.20847
O         19.64330        14.10240        -2.50943
H         20.46310        13.65866        -2.81598
O         14.49642        10.03795        -1.99410
H         13.62976         9.61452        -2.17749
O         26.31867        16.78545        -1.62218
H         25.57047        16.53178        -2.20460
O         24.59685        10.06853        -2.58242
H         25.36567         9.58098        -2.95514
O         11.13481         3.11995         2.29174
H         10.30983         2.61949         2.49718
O         13.82815         3.36589         2.08964
H         12.96168         3.11870         2.49646
H          0.26616         1.65343        -0.34052
H          0.21876         4.07356         0.07430
H          2.42831         0.41297        -0.43759
H          0.20547         5.96408         0.30106
H          0.14450         8.29546         0.88218
H          0.22310        10.18800         0.57233
H          0.23018        12.55574         0.01322
H          0.36346        14.35790        -0.95460
H          0.29932        16.79548        -1.05595
H          1.56569        19.06126        -1.05501
H          4.86724         0.43390        -0.44037
H          3.72740        20.20849        -1.17035
H          7.21091         0.61942        -1.04049
H          6.10436        20.32828        -0.50151
H          9.98099         0.58753        -0.99938
H          8.51756        20.36509         0.09595
H         12.26137         0.49349        -0.59034
H         11.07983        20.39043        -0.02432
H         14.68077         0.34192        -0.37098
H         13.61112        20.37852        -0.30564
H         17.18491         0.26653        -0.00589
H         16.06410        20.32761        -0.62398
H         19.60798         0.24938         0.02178
H         18.55030        19.57398        -1.93565
H         22.24994         0.21269        -0.19646
H         20.91828        20.27004        -0.08974
H         24.69318         0.28016         0.20181
H         23.31317        20.15206         0.72619
H         27.07261         0.35657         0.61145
H         25.60253        19.85902         1.72730
H         29.49462         0.34252         0.88616
H         27.79624        19.60715         2.67425
H         31.58360         1.63482         1.20209
H         32.84312         3.74713         1.10796
H         32.88425         6.20285         1.06861
H         32.77299         8.21146         1.08819
H         32.96107        10.53749         0.34217
H         33.05948        12.25332        -1.03284
H         33.03881        14.75650        -1.05983
H         32.84151        17.73838         0.45412
H         30.13553        19.78932         3.12942
H         32.46040        19.42727         2.27453
