         429
 CSIRO Nanostructure Databank - Neutral Graphene Oxide Data Set
C          1.67530         2.04493        -2.41978
C          1.66355         3.45080        -2.42067
C          2.83420         1.35055        -2.12841
C          2.81944         4.19009        -2.12831
C          1.63441         6.37671        -2.26765
C          1.62185         7.78057        -2.23554
C          2.81921         5.65069        -2.09117
C          2.77735         8.50772        -1.99151
C          1.55049        10.77669        -2.13128
C          1.57141        12.12673        -1.95619
C          2.78379         9.98978        -2.09889
C          2.74770        12.86117        -1.55649
C          1.58112        15.06068        -1.87382
C          1.58273        16.44363        -1.82203
C          2.69800        14.31346        -1.42867
C          2.70345        17.15120        -1.33469
C          2.76647        18.58822        -1.51749
C          4.03635         2.05497        -1.83595
C          4.02971         3.49084        -1.84153
C          5.22533         1.35905        -1.54199
C          5.23326         4.20513        -1.56305
C          4.03673         6.35752        -1.83789
C          4.01982         7.80617        -1.74832
C          5.24424         5.64589        -1.57786
C          5.16670         8.49421        -1.34521
C          4.01839        10.73791        -1.60678
C          3.91738        12.15921        -1.23600
C          5.07147         9.91473        -0.95443
C          5.06028        12.80176        -0.64238
C          3.80642        15.01032        -0.88831
C          3.80972        16.42281        -0.82883
C          4.95178        14.24225        -0.35217
C          4.99701        17.15377        -0.33571
C          3.89326        19.30117        -1.28086
C          5.05954        18.68721        -0.62823
C          6.42580         2.04986        -1.27346
C          6.42885         3.49238        -1.29232
C          7.61915         1.35167        -0.98534
C          7.64398         4.19556        -1.04812
C          6.45994         6.33524        -1.30253
C          6.52488         7.84781        -1.34776
C          7.64111         5.63225        -1.02793
C          7.47692         8.34457        -0.23880
C          6.22097        10.63154        -0.29758
C          6.24700        12.11791        -0.34287
C          7.48922         9.86560        -0.03660
C          7.49058        12.82524        -0.11763
C          6.25317        14.99301        -0.03407
C          6.28258        16.45003        -0.22859
C          7.51504        14.24461        -0.08455
C          7.48962        17.13203        -0.22195
C          6.38011        19.27047        -0.79803
C          7.53786        18.56023        -0.49918
C          8.83286         2.03801        -0.76398
C          8.84500         3.47733        -0.82268
C         10.02779         1.33985        -0.47354
C         10.08700         4.17718        -0.69759
C          8.88827         6.34030        -0.78653
C          8.86134         7.76237        -0.51874
C         10.08792         5.61959        -0.75536
C         10.02936         8.49394        -0.35989
C          8.76847        10.63733         0.02954
C          8.73632        12.11885        -0.08453
C         10.05672         9.92277        -0.15323
C          9.94441        12.81979        -0.08124
C          8.73510        14.96893        -0.03698
C          8.73799        16.41936        -0.03378
C          9.96165        14.24397        -0.04750
C          9.94031        17.13034         0.13865
C          8.80955        19.19783        -0.55759
C          9.99519        18.56718        -0.16236
C         11.24856         2.02646        -0.28918
C         11.27104         3.44991        -0.47797
C         12.43894         1.33640         0.06479
C         12.57328         4.13277        -0.38517
C         11.36301         6.35451        -0.79362
C         11.33715         7.84842        -0.59791
C         12.64700         5.63238        -0.51990
C         12.56564         8.53830        -0.13801
C         11.25438        10.61969        -0.15646
C         11.23105        12.09634        -0.24049
C         12.53574         9.93953        -0.04425
C         12.52519        12.85725        -0.13348
C         11.19549        14.95206         0.14959
C         11.13227        16.35589         0.40436
C         12.44152        14.27853         0.26648
C         12.29146        16.95824         0.91352
C         11.20353        19.34008        -0.29123
C         12.38268        19.04084         0.41062
C         13.63631         2.02409         0.41101
C         13.66037         3.43653         0.29996
C         14.83982         1.31856         0.73263
C         14.76547         4.21710         0.82871
C         13.77432         6.37750         0.09581
C         13.75155         7.80859         0.15543
C         14.87015         5.67383         0.60214
C         14.92903         8.51116         0.57129
C         13.76051        10.64479         0.21411
C         13.87701        12.13754        -0.05911
C         14.92302         9.94531         0.52764
C         14.90512        12.81845         0.82848
C         13.61703        14.95965         0.64750
C         13.56877        16.36932         0.87832
C         14.83423        14.25697         0.96470
C         14.76395        17.15501         1.01602
C         13.72486        19.34878         0.17892
C         14.81636        18.57974         0.73747
C         16.05363         1.98423         0.96562
C         16.03418         3.43848         1.21374
C         17.29961         1.33277         0.99949
C         17.28329         4.20747         1.27287
C         16.05790         6.35859         1.02349
C         16.09373         7.77997         0.95069
C         17.23425         5.60038         1.36418
C         17.32140         8.49146         1.29168
C         16.22713        10.71126         0.66349
C         16.01732        12.11004         1.22484
C         17.33537         9.93661         1.33671
C         17.08193        12.77127         2.00007
C         15.94946        15.00263         1.36233
C         15.97451        16.43660         1.25888
C         17.10186        14.32081         1.96541
C         17.21238        17.11459         1.41571
C         16.06746        19.21150         0.81902
C         17.24792        18.53111         1.20613
C         18.52153         2.04770         1.14628
C         18.52568         3.48801         1.26638
C         19.74960         1.35943         1.14103
C         19.75366         4.19430         1.29983
C         18.44927         6.29599         1.92035
C         18.44697         7.78079         1.67717
C         19.75524         5.62962         1.50586
C         19.67614         8.49242         2.02267
C         18.45585        10.62644         1.79324
C         18.36719        12.02149         2.36583
C         19.69228         9.95283         2.00250
C         19.65910        12.81371         2.21610
C         18.38017        15.03136         2.06846
C         18.42344        16.39863         1.75425
C         19.60843        14.30634         2.57789
C         19.65949        17.13812         1.81711
C         18.46572        19.23396         1.33928
C         19.67120        18.55832         1.62516
C         20.98510         2.04905         1.19348
C         20.98822         3.48825         1.23103
C         22.21716         1.36562         1.20077
C         22.22836         4.18628         1.19716
C         20.93471         6.33607         1.45827
C         20.99516         7.74760         1.89499
C         22.18734         5.65306         1.07806
C         22.24525         8.53752         1.81628
C         20.91171        10.65174         2.14906
C         20.84456        12.11685         2.23865
C         22.16905         9.96136         2.11237
C         22.12826        12.83953         2.40625
C         20.87438        15.05817         2.22926
C         20.89209        16.43977         2.01620
C         22.13946        14.34730         2.38265
C         22.14892        17.18109         1.98018
C         20.89340        19.27625         1.67593
C         22.13204        18.61865         1.82020
C         23.44764         2.05954         1.26578
C         23.45621         3.50449         1.24295
C         24.66232         1.34643         1.34430
C         24.71537         4.22226         1.37599
C         23.50864         6.43528         1.18436
C         23.43836         7.86884         1.56533
C         24.72483         5.64208         1.41377
C         24.72268         8.52809         2.00249
C         23.39021        10.73911         2.06985
C         23.37311        12.11877         2.07940
C         24.69328        10.04261         1.89114
C         24.44634        12.94167         1.40793
C         23.40496        15.07039         2.09730
C         23.38134        16.52328         2.05493
C         24.55140        14.37612         1.85424
C         24.61488        17.23836         1.85834
C         23.34878        19.33773         1.75912
C         24.59973        18.67846         1.73505
C         25.90270         2.02031         1.46110
C         25.91059         3.44636         1.53511
C         27.12159         1.27410         1.45160
C         27.24561         4.09565         1.86800
C         26.02144         6.35691         1.76330
C         25.96181         7.86037         1.37915
C         27.19409         5.50209         1.32338
C         26.87703         8.59335         0.66462
C         25.83824        10.79423         1.31833
C         25.75484        12.25970         1.21796
C         26.72549        10.07095         0.33598
C         26.91407        12.95848         0.93118
C         25.89136        15.05363         1.93771
C         25.82918        16.54592         1.70468
C         26.96858        14.38480         1.12583
C         27.02461        17.24755         1.41739
C         25.81859        19.37706         1.55849
C         27.04286        18.68924         1.38720
C         28.38568         1.90746         1.28397
C         28.41251         3.32935         1.28781
C         29.58043         1.19732         0.96580
C         29.58695         4.00216         0.90747
C         28.14699         5.85330         0.42878
C         28.06575         8.01276         0.02543
C         29.51972         5.40106         0.50409
C         29.33139         8.52738         0.01012
C         28.05149        10.80883         0.01862
C         28.03472        12.27507         0.30326
C         29.38244        10.01079        -0.14545
C         29.03689        13.10023        -0.16022
C         28.12050        15.11254         0.84957
C         28.21347        16.53006         1.08586
C         29.25717        14.43596         0.29650
C         29.43472        17.19014         0.83756
C         28.27749        19.34785         1.14999
C         29.47540        18.63440         0.90038
C         30.78896         1.87833         0.73178
C         30.78274         3.29462         0.73006
C         32.01642         1.19829         0.34752
C         32.05086         4.08411         0.76669
C         30.62214         6.19558         0.21326
C         30.59098         7.67200        -0.31658
C         31.92795         5.55723         0.34050
C         31.85516         8.42303         0.12494
C         30.71097        10.61981        -0.08706
C         30.90042        11.99234        -0.35834
C         31.89269         9.85795         0.21951
C         31.88730        12.75463         0.23439
C         30.53411        15.02297         0.32789
C         30.62740        16.43759         0.55763
C         31.77859        14.21230         0.41053
C         31.86556        17.11673         0.36943
C         30.70356        19.28644         0.63613
C         31.88635        18.56146         0.34823
C         33.17891         1.85643         0.03738
C         33.19623         3.39499         0.01603
C         34.27492         1.14013        -0.63090
C         34.46283         4.13762         0.36944
C         33.09967         6.26860         0.18608
C         33.09627         7.72750         0.14423
C         34.42192         5.62489         0.54785
C         34.32238         8.41565         0.17720
C         33.08780        10.56586         0.43514
C         33.11612        12.04771         0.75553
C         34.38677         9.84855         0.63080
C         34.34469        12.77496         0.19005
C         33.11563        14.95271         0.36118
C         33.07116        16.39922         0.10285
C         34.31808        14.15342         0.01917
C         34.23369        17.05152        -0.32555
C         33.09299        19.21566         0.01121
C         34.25216        18.49617        -0.36771
C         35.59690         1.46206        -0.38082
C         35.71202         3.55710         0.42216
C         36.81502         1.21468        -1.07440
C         36.89625         4.19798        -0.01724
C         35.63502         6.28639        -0.05118
C         35.53401         7.73946        -0.39607
C         36.81489         5.60365        -0.28176
C         36.86001         8.44997        -0.23202
C         35.57359        10.63123         0.08129
C         35.55371        12.01379        -0.06223
C         36.85456         9.90658         0.06295
C         36.75156        12.73826        -0.49388
C         35.45223        14.87158        -0.52000
C         35.40899        16.29178        -0.69153
C         36.63863        14.15854        -0.82030
C         36.53550        16.97390        -1.22107
C         35.43239        19.15621        -0.76124
C         36.55598        18.43860        -1.25848
C         37.99432         1.97575        -0.88347
C         38.08755         3.37374        -0.33247
C         39.18551         1.40822        -1.41539
C         39.35439         4.19038        -0.74718
C         37.93305         6.33241        -0.99548
C         37.98923         7.79877        -0.61051
C         39.27807         5.64949        -0.92680
C         39.16373         8.56670        -1.18014
C         38.13228        10.69492        -0.16564
C         37.98149        12.10299        -0.56478
C         39.37951         9.93692        -0.55955
C         39.20206        12.85150        -0.96312
C         37.72368        14.85385        -1.41047
C         37.66523        16.23484        -1.64447
C         38.95178        14.09536        -1.75929
C         38.92145        16.96009        -2.08802
C         37.65320        19.11104        -1.77934
C         38.63679        18.37629        -2.64754
C         40.37105         2.10606        -1.62486
C         40.45881         3.49105        -1.42147
C         41.60709         4.24553        -1.78548
C         40.43406         6.35412        -1.32257
C         40.43906         7.78672        -1.37826
C         41.63208         5.61178        -1.64602
C         41.54809         8.54353        -1.84742
C         40.61449        10.67863        -0.98839
C         40.54424        12.18472        -1.09583
C         41.59114         9.91829        -1.79058
C         41.60186        12.90515        -1.86228
C         40.05782        14.72224        -2.54403
C         39.85075        16.16800        -3.05312
C         41.40531        14.10036        -2.44546
C         41.11300        16.97225        -3.23731
C         39.94950        19.08627        -2.83576
C         41.09494        18.36004        -3.14956
O         13.04856         4.78814        -1.64992
O          3.83579        10.47008        -3.02456
O         32.50873        14.61722         1.65355
O         20.36375         7.92604         3.22156
O         15.07246         3.84666         2.22662
O         12.17009        18.19740         1.52918
O         16.64376        13.54888         3.14416
O         22.84469         6.17148        -0.11883
O         28.53600        10.44276        -1.30382
O         22.21375        13.59673         3.68935
O         35.79723         2.21788         0.78642
O          5.32197        14.57631         1.02250
O          4.76515        18.14458         0.70217
O         29.93241        12.64491        -1.12641
O          5.09750        10.11666         0.50867
O         27.85783         6.77958        -0.56874
O         40.47181        10.09830         0.36730
O         37.71367        10.33964         1.18387
O         40.19261        12.91904         0.12145
O         39.15773         3.64561         0.61956
O         11.92694        12.60625        -1.46001
O          8.06485        10.18878         1.27195
O         25.84384        10.47285         2.75549
O         11.47280         7.26425        -1.94470
O         39.09300        13.81273        -3.20982
O         18.29012        11.76003         3.80060
H         18.21998        12.64367         4.23711
O          7.15641         8.25801        -2.60341
H          6.60705         7.92734        -3.34529
O         35.30704         7.79424        -1.88903
H         34.38839         7.48388        -2.05408
O         32.44092         4.08254         2.18323
H         31.64737         4.29972         2.71788
O          7.01295         7.76331         0.99572
H          7.29759         8.36102         1.72328
O         23.89377        13.06628         0.01869
H         24.12505        12.24464        -0.46881
O         24.70012         8.33533         3.46244
H         25.30496         9.01628         3.84139
O         37.57569         6.32123        -2.43284
H         36.68807         6.77105        -2.48874
O         33.19707        12.13922         2.21801
H         33.07349        13.09899         2.43854
O         39.70903        17.11778        -0.87783
H         39.17371        17.62342        -0.23044
O         27.42337         4.01509         3.30787
H         26.90674         4.76889         3.69005
O         18.35114         6.11875         3.37496
H         19.06748         6.67590         3.76942
O         25.95704        10.13652        -0.90020
H         26.59934         9.99957        -1.63614
O         34.54945         5.82823         2.00631
H         33.87937         5.22898         2.42394
O         26.18738         6.31309         3.21938
H         25.45798         6.84749         3.63180
O         38.70765         8.86830        -2.55102
H         38.41592         8.00453        -2.93810
O         14.44700        12.23419        -1.40773
H         13.68365        12.15491        -2.03070
O         16.73277        10.90074        -0.70110
H         16.01543        11.36006        -1.21229
O         34.63145         9.79717         2.08555
H         34.30376        10.65243         2.46178
O         30.68623         7.56789        -1.76469
H         29.84566         7.17476        -2.08360
O         26.31664        14.88025         3.34422
H         25.60494        15.24241         3.91439
O         39.24528        16.04671        -4.36674
H         38.79936        15.16234        -4.38735
O         19.53358        14.31159         4.05387
H         20.42162        14.00003         4.36351
O         37.99237        18.31677        -3.95383
H         38.42274        17.58391        -4.46471
O         32.99333         3.72725        -1.39730
H         33.62272         3.18803        -1.92250
H          0.74974         1.49981        -2.65179
H          0.72070         3.96099        -2.65814
H          2.84230         0.25130        -2.12432
H          0.68583         5.85747        -2.45475
H          0.67240         8.29791        -2.42943
H          0.58632        10.26916        -2.27460
H          0.61790        12.66735        -2.02573
H          0.70543        14.55120        -2.29576
H          0.71846        17.00667        -2.20247
H          1.89603        19.07641        -1.98066
H          5.22006         0.25907        -1.52994
H          3.95748        20.35955        -1.57452
H          7.60578         0.25228        -0.95116
H          6.45924        20.29054        -1.20347
H         10.00279         0.24450        -0.37761
H          8.84332        20.26037        -0.84153
H         12.41383         0.23977         0.14073
H         11.17987        20.20753        -0.96824
H         14.83915         0.22199         0.64842
H         13.98517        20.18724        -0.48423
H         17.33917         0.24105         0.87085
H         16.13631        20.28503         0.58955
H         19.75115         0.26119         1.07803
H         18.48107        20.32178         1.17759
H         22.22394         0.26557         1.18490
H         20.87556        20.36736         1.53659
H         24.64360         0.24676         1.32019
H         23.31479        20.43252         1.65471
H         27.06187         0.17594         1.41280
H         25.80305        20.47590         1.50450
H         29.55607         0.09873         0.91331
H         28.30297        20.44803         1.14510
H         31.98240         0.10174         0.25667
H         30.73844        20.38622         0.63029
H         34.01896         0.35652        -1.36154
H         33.12193        20.31547        -0.00017
H         36.87112         0.36092        -1.76828
H         35.45752        20.25591        -0.77301
H         39.14914         0.34953        -1.71235
H         37.65226        20.21219        -1.79419
H         41.23661         1.57553        -2.04801
H         42.49359         3.71242        -2.15940
H         42.55582         6.15392        -1.88481
H         42.39716         8.02494        -2.31595
H         42.43103        10.44889        -2.26065
H         42.61494        12.47516        -1.85613
H         42.25545        14.61009        -2.92071
H         42.03188        16.47322        -3.57576
H         39.97435        20.18587        -2.84784
H         42.03069        18.90643        -3.34543
