         667
 CSIRO Nanostructure Databank - Neutral Graphene Oxide Data Set
C          6.18398        31.87312        -0.53465
C          6.06120        33.20587        -0.24422
C          8.46302        27.54996         0.13538
C          8.46718        28.92860         0.20945
C          7.38678        29.70928        -0.33313
C          8.28814        31.69212         0.77987
C          7.29644        31.06650        -0.07499
C          7.97551        32.97966         1.21305
C          7.04167        33.86768         0.58541
C          8.34099        36.01133         1.01675
C          7.14474        35.26972         0.70765
C          8.36453        37.39907         1.07269
C         10.79869        23.20078         0.13960
C         10.73727        24.61100         0.31540
C          9.56341        25.29690         0.56512
C         10.84707        27.47947         0.75540
C          9.51871        26.76634         0.87792
C         10.84377        28.89219         0.96043
C          9.59637        29.63795         0.82240
C         10.76469        31.69444         1.73372
C          9.52517        30.99476         1.10338
C         10.85552        33.17429         1.36734
C          9.79993        33.97765         1.57501
C         10.88434        36.07581         1.44578
C          9.68066        35.31060         0.90693
C         10.86516        37.53044         1.09433
C          9.58416        38.18881         1.07376
C         10.78412        40.32940         0.86372
C          9.57222        39.57942         0.93572
C         10.78933        41.72782         0.68309
C         13.33400        18.94674        -0.23098
C         13.29840        20.35099        -0.06817
C         12.07632        21.06895         0.04916
C         13.26692        23.21273         0.05233
C         12.03525        22.49883         0.05514
C         13.29257        24.65316        -0.16195
C         11.97530        25.39086         0.06955
C         13.29952        27.46192         0.66471
C         12.03646        26.80055         0.51027
C         13.29255        28.84090         1.02586
C         12.06346        29.57033         1.12070
C         13.25309        31.69572         1.31341
C         12.07136        31.00187         1.36829
C         13.30914        33.18912         1.53199
C         12.11484        33.82482         0.82684
C         13.30816        36.01140         0.91279
C         12.14604        35.33908         1.04825
C         13.34150        37.49458         0.65159
C         12.05086        38.21860         0.94851
C         13.26702        40.36540         0.89021
C         12.05243        39.64806         0.88416
C         13.25541        41.77500         0.82016
C         11.99923        42.43766         0.61433
C         13.20360        44.51355         0.05513
C         12.02994        43.80043         0.19237
C         13.02927        45.76552        -0.81387
C         15.84940        14.76253        -1.05133
C         15.80774        16.18351        -0.83453
C         14.60003        16.84837        -0.58225
C         15.78291        19.00441        -0.48683
C         14.55842        18.25947        -0.41617
C         15.76496        20.41361        -0.19128
C         14.54363        21.06201         0.01368
C         15.78051        23.24423         0.33711
C         14.49634        22.48126         0.51406
C         15.79171        24.60624         0.29221
C         14.61349        25.43195        -0.17772
C         15.74745        27.48134         0.78640
C         14.55098        26.80449         0.48417
C         15.74532        28.82804         1.23120
C         14.52386        29.50585         1.25131
C         15.81991        31.69089         1.26786
C         14.52433        30.97342         1.15984
C         15.78671        33.17951         1.27100
C         14.61904        33.85345         1.14683
C         15.79372        36.07361         1.27572
C         14.62157        35.30242         0.68043
C         15.71646        37.46534         1.50152
C         14.54971        38.19368         1.21845
C         15.57338        40.46723         1.78843
C         14.61571        39.67014         0.89108
C         15.69864        41.89705         1.29316
C         14.46181        42.56228         0.90982
C         15.67289        44.68951         0.71946
C         14.43734        43.94491         0.58460
C         15.76561        46.06314         0.55943
C         14.09848        46.79919        -0.66123
C         15.83156        48.46220        -1.25659
C         14.65945        47.62398        -1.56974
C         15.88269        49.71605        -1.83634
C         18.28652        10.64188        -2.18415
C         18.26994        12.01249        -1.89512
C         17.06188        12.68908        -1.58106
C         18.34838        14.78900        -1.07321
C         17.03642        14.06313        -1.27677
C         18.23443        16.25406        -1.43437
C         17.00492        16.96207        -1.00485
C         18.16561        19.22637        -1.24262
C         16.99169        18.34304        -0.84758
C         18.30737        20.36044        -0.19206
C         17.01230        21.13721        -0.05305
C         18.28106        23.18066         0.46345
C         17.02838        22.48619         0.27159
C         18.24757        24.59234         0.97853
C         17.07389        25.33796         0.38738
C         18.30941        27.48280         1.07477
C         17.05978        26.81765         0.61353
C         18.29840        28.83231         1.41501
C         16.98713        29.44630         1.87569
C         18.31521        31.70592         1.60395
C         17.00622        31.02453         1.94406
C         18.33259        33.11506         1.48609
C         17.10048        33.85040         1.14774
C         18.32896        36.01591         1.69734
C         17.08695        35.37466         1.24654
C         18.25468        37.46279         2.03555
C         16.92915        38.20663         1.97330
C         18.18394        40.47580         1.78790
C         16.91125        39.72206         2.00199
C         18.16050        41.83160         1.56397
C         16.90673        42.55443         1.37115
C         18.19016        44.74308         0.99420
C         16.89308        44.06085         1.36031
C         18.23020        46.04711         0.56546
C         16.98717        46.74994         0.21436
C         18.32185        48.57957        -0.82647
C         16.97958        47.93250        -0.52451
C         18.22063        50.06860        -1.15133
C         17.01555        50.60085        -1.71191
C         18.15440        52.72869        -2.22860
C         16.98069        51.91958        -2.18410
C         18.18163        54.02459        -2.79604
C         20.67800         6.30635        -2.66141
C         20.71588         7.81381        -2.56992
C         19.51669         8.51496        -2.50368
C         20.73514        10.62889        -2.55555
C         19.49909         9.93010        -2.43810
C         20.70252        12.11023        -2.55126
C         19.50624        12.78094        -1.99902
C         20.78331        14.88452        -1.78266
C         19.53961        14.13108        -1.73896
C         20.79028        16.26878        -1.50916
C         19.51637        17.01401        -1.59684
C         20.81449        19.12159        -0.92834
C         19.52014        18.50161        -1.40739
C         20.81203        20.48736        -0.34336
C         19.51938        21.26217        -0.50418
C         20.72447        23.23082         0.53424
C         19.49170        22.54543         0.28773
C         20.73819        24.61868         0.65156
C         19.53347        25.35223         0.77113
C         20.79680        27.42668         1.20978
C         19.53842        26.75065         0.95547
C         20.77477        28.84452         1.51439
C         19.53663        29.54859         1.56234
C         20.77682        31.71005         1.58232
C         19.54210        30.98501         1.64526
C         20.77462        33.12760         1.56236
C         19.55460        33.84788         1.53418
C         20.81369        36.04028         1.75985
C         19.51341        35.30676         1.67933
C         20.81631        37.53916         1.78566
C         19.51140        38.26505         1.98096
C         20.73502        40.45178         1.72203
C         19.45237        39.69992         1.45889
C         20.68584        41.93554         1.97348
C         19.46369        42.56093         1.24754
C         20.73277        44.72734         1.07635
C         19.43400        44.07971         1.52591
C         20.69247        46.13832         0.74643
C         19.49488        46.77021         0.49122
C         20.67456        48.95708         0.00732
C         19.34221        48.27240         0.30202
C         20.63753        50.31219        -0.64635
C         19.36133        50.86318        -1.14499
C         20.60919        52.85203        -1.95770
C         19.37958        52.16055        -1.74709
C         20.63162        54.14146        -2.52597
C         19.39037        54.75286        -2.93495
C         20.65111        56.72904        -3.71375
C         19.43183        56.03088        -3.54725
C         20.71305        57.98067        -4.37591
C         23.11282         3.59969        -1.53193
C         21.92557         4.27843        -1.87857
C         23.16398         6.35845        -2.12928
C         21.94319         5.63679        -2.18294
C         23.20609         7.77504        -2.38294
C         21.95370         8.51104        -2.55591
C         23.25431        10.67099        -2.35198
C         21.94969         9.92940        -2.59026
C         23.31411        12.13566        -2.86291
C         22.00289        12.88206        -2.60614
C         23.25082        14.85734        -1.69219
C         22.02493        14.22593        -2.00988
C         23.25051        16.18546        -1.19312
C         22.01168        16.92773        -1.17280
C         23.20099        18.82425        -0.10868
C         21.99661        18.26449        -0.72877
C         23.18883        20.26227         0.34760
C         21.93872        21.05021         0.15914
C         23.25643        23.15164         0.67688
C         21.94497        22.40348         0.83369
C         23.25824        24.52734         0.74088
C         22.02821        25.36287         0.43368
C         23.23746        27.32834         1.55507
C         21.99566        26.72575         1.08784
C         23.24685        28.82959         1.87626
C         21.99274        29.56591         1.66589
C         23.27845        31.66142         1.75733
C         22.02012        30.97482         1.62318
C         23.29697        33.07236         1.85105
C         22.09091        33.86107         1.38325
C         23.09965        35.67421         2.71827
C         22.03500        35.22573         2.02507
C         23.15970        37.90938         2.71873
C         21.99003        38.39057         2.10961
C         23.19542        40.57254         2.19586
C         21.92946        39.79299         1.87785
C         23.13949        41.90289         1.49340
C         21.96842        42.62082         1.51626
C         23.25787        44.76040         1.18342
C         21.92161        44.03114         1.16180
C         23.24100        46.09314         0.47987
C         21.99123        46.91829         0.74605
C         23.17521        48.87885        -0.33923
C         21.88526        48.15708        -0.08580
C         22.98304        49.91274        -1.46459
C         21.85382        50.86305        -1.25726
C         23.10572        52.81246        -2.09851
C         21.86215        52.14188        -1.78133
C         23.13795        54.16590        -2.40530
C         21.87917        54.84284        -2.70073
C         23.10959        56.93633        -3.26026
C         21.87093        56.13539        -3.22617
C         23.16194        58.12963        -4.10782
C         21.94460        58.65271        -4.62974
C         23.21452        60.49082        -5.61594
C         21.99423        59.85685        -5.38261
C         24.32046         4.26870        -1.51962
C         25.60626         6.35471        -1.84378
C         24.37700         5.66035        -1.82256
C         25.65441         7.73321        -2.13783
C         24.42873         8.44187        -2.37197
C         25.74516        10.60662        -2.40173
C         24.48896         9.88021        -2.83595
C         25.75917        12.01270        -2.22469
C         24.53576        12.80493        -2.26604
C         25.72275        14.79915        -1.43926
C         24.50799        14.12933        -1.83223
C         25.72065        16.09276        -0.93240
C         24.48152        16.82840        -0.81359
C         25.70938        18.84402        -0.01973
C         24.48935        18.15011        -0.33861
C         25.71268        20.22684         0.35122
C         24.47475        20.99244         0.44473
C         25.82012        23.08328         0.57937
C         24.47925        22.36912         0.61524
C         25.73919        24.47044         1.18804
C         24.53549        25.26767         0.82152
C         25.79148        27.37887         1.66590
C         24.54548        26.71509         1.19543
C         25.77569        28.78509         1.89410
C         24.53615        29.52443         1.87003
C         25.72929        31.64931         2.11732
C         24.50879        30.93570         1.92357
C         25.72125        33.03952         2.22345
C         24.48723        33.72689         2.19586
C         25.60614        36.03273         2.20449
C         24.47290        35.10098         2.81459
C         25.66735        37.54908         2.55009
C         24.43977        38.41352         2.45140
C         25.61649        40.32406         1.44674
C         24.47109        39.76921         1.95607
C         25.63427        41.63038         0.68519
C         24.34084        42.43791         0.82023
C         25.69787        44.57964         0.51373
C         24.38836        43.91245         0.64513
C         25.70647        45.91875         0.10841
C         24.39948        46.62386        -0.04687
C         25.21812        48.37828        -1.60698
C         24.31439        47.93461        -0.68713
C         25.25240        49.72854        -2.11300
C         24.26104        50.60802        -1.84244
C         25.67220        52.82078        -1.87853
C         24.35908        52.08202        -1.81499
C         25.63118        54.22533        -2.31158
C         24.41749        54.85076        -2.52950
C         25.69584        56.89142        -3.33324
C         24.42548        56.28962        -2.85843
C         25.64235        58.13694        -3.98033
C         24.41144        58.75167        -4.37918
C         24.40993        59.95343        -5.13795
C         26.88804         8.43473        -2.16040
C         28.17348        10.53122        -2.01621
C         26.94398         9.85442        -2.22383
C         28.20261        11.92492        -1.86503
C         26.98252        12.65102        -1.91650
C         28.12357        14.52642        -0.76099
C         27.04561        14.14825        -1.76937
C         28.14168        16.01230        -0.50177
C         26.96595        16.73351        -0.49873
C         28.13956        18.77463         0.31727
C         26.94461        18.12825        -0.07120
C         28.14396        20.14340         0.66211
C         26.94642        20.86321         0.65739
C         28.24364        22.99493         1.21438
C         26.91363        22.25412         1.25358
C         28.26139        24.43536         1.45542
C         26.98657        25.17450         1.61947
C         28.21516        27.33732         1.99940
C         27.00059        26.66424         1.72263
C         28.23027        28.73794         2.19304
C         27.01327        29.45182         2.13843
C         28.27481        31.69546         2.43580
C         26.97265        30.90901         2.38943
C         28.26572        33.13842         2.16791
C         26.96195        33.85499         1.93562
C         28.19430        36.00803         1.89400
C         26.98129        35.30122         2.48999
C         28.18529        37.44350         1.79362
C         26.94714        38.21700         2.12416
C         28.13787        40.31984         1.37098
C         26.86515        39.49412         1.28801
C         28.11383        41.74357         1.22263
C         26.89498        42.43945         0.97044
C         28.13685        44.55873         0.93669
C         26.90534        43.83580         0.77674
C         28.08280        46.03060         0.85595
C         26.96397        46.61445         0.12392
C         28.21917        48.70192        -0.51436
C         27.21674        47.76483        -0.69816
C         28.13146        50.21532        -0.75727
C         27.22051        50.83450        -1.80019
C         28.09212        53.05354        -1.15021
C         27.00802        52.17073        -1.74047
C         28.08482        54.34904        -1.94809
C         26.91439        54.92217        -2.43703
C         26.89957        56.21510        -3.06018
C         29.44620        12.63766        -1.65052
C         30.66004        14.68028        -1.02272
C         29.45799        13.93628        -1.18137
C         30.67836        15.97922        -0.50841
C         29.41056        16.58632        -0.02702
C         30.67053        18.79838         0.32085
C         29.40996        18.02384         0.41017
C         30.66698        20.14019         0.62496
C         29.41165        20.77559         1.20647
C         30.74222        22.96628         1.37657
C         29.41047        22.29215         1.12972
C         30.70991        24.47867         1.30331
C         29.45253        25.13184         1.55544
C         30.79187        27.27154         2.03189
C         29.47150        26.54500         2.01651
C         30.82072        28.75597         2.27035
C         29.50576        29.47960         2.62079
C         30.79489        31.72600         2.32821
C         29.51254        30.91127         2.02503
C         30.68992        33.14764         1.78352
C         29.43189        33.83233         1.83349
C         30.52925        36.00052         1.11312
C         29.33704        35.27867         1.60317
C         30.59722        37.46556         1.32055
C         29.35423        38.16634         1.55325
C         30.58898        40.35049         1.51626
C         29.35052        39.63159         1.49565
C         30.57950        41.74783         1.46598
C         29.35356        42.47152         1.29336
C         30.60534        44.71878         1.44244
C         29.34153        43.89790         1.17689
C         30.60219        46.09770         0.81073
C         29.39079        46.87693         0.87574
C         30.63679        48.84170        -0.21387
C         29.35490        48.35767         0.45360
C         30.65462        50.15681        -0.72409
C         29.46539        50.93620        -0.87025
C         29.41970        52.29170        -1.13545
C         31.85558        16.75673        -0.48316
C         33.06127        18.87880        -0.26368
C         31.87476        18.12352        -0.13057
C         33.08331        20.26475        -0.03938
C         31.86513        20.93152         0.42104
C         33.03264        23.08871         0.22086
C         31.86440        22.29472         0.62760
C         33.04230        24.55678         0.48046
C         31.87386        25.21663         1.12242
C         33.05360        27.39578         0.94482
C         31.94990        26.63674         1.35691
C         33.14390        28.80809         1.15864
C         32.05275        29.51994         1.87820
C         33.13065        31.68492         1.38222
C         32.00728        30.99307         1.78556
C         33.07945        33.11433         1.22116
C         31.86492        33.80036         1.35251
C         33.08608        36.00063         1.00343
C         31.82323        35.23747         0.97248
C         33.05359        37.41868         1.08377
C         31.81062        38.12929         1.30302
C         33.09871        40.27564         1.15925
C         31.88512        39.57914         1.73957
C         33.15007        41.74146         1.25868
C         31.85796        42.51190         1.49136
C         33.00442        44.55853         0.63023
C         31.84818        43.93347         1.12670
C         32.96654        45.92485         0.22069
C         31.77495        46.67468         0.25471
C         31.76234        48.01985        -0.24819
C         34.28073        21.00243        -0.20567
C         35.45996        23.17434        -0.31163
C         34.31495        22.40082        -0.06650
C         35.48747        24.59047        -0.16197
C         34.36549        25.28437         0.58618
C         35.43378        27.48106         0.03289
C         34.13640        26.72372         0.11445
C         35.44932        28.87368         0.22815
C         34.27631        29.53931         0.77038
C         35.53756        31.65710         0.84136
C         34.34781        30.96243         0.99749
C         35.54597        33.10814         1.29453
C         34.31606        33.81702         0.71218
C         35.52321        36.03075         0.92601
C         34.31097        35.31155         0.95825
C         35.49862        37.44263         0.78737
C         34.27021        38.13234         0.90663
C         35.44784        40.28687         0.40328
C         34.23818        39.58276         0.82216
C         35.42163        41.69108         0.26142
C         34.29139        42.44708         0.63712
C         34.21018        43.81738         0.40798
C         36.57018        25.35166        -0.56454
C         37.75631        27.51972        -0.71258
C         36.60192        26.78836        -0.40937
C         37.78201        28.94283        -0.60033
C         36.61898        29.61785        -0.06805
C         37.83258        31.74907        -0.10131
C         36.69091        31.02371         0.24286
C         38.01747        33.12957         0.36791
C         36.85532        33.83514         1.01900
C         38.05620        36.07984         0.47840
C         36.82538        35.33718         1.00391
C         37.86861        37.46739         0.05986
C         36.69879        38.15645         0.35770
C         36.61135        39.55966         0.12515
C         38.89523        29.68407        -0.99901
C         40.14399        31.87829        -1.08870
C         38.81258        31.17584        -1.09295
C         40.25915        33.17468        -0.74383
C         39.14389        33.92988        -0.18018
C         39.16652        35.28716        -0.08901
O         17.28091        34.66187        -0.06562
O         28.57578        46.68807         2.09496
O         37.90960        33.27712         1.84972
O         23.69977        57.13327        -1.91273
O         37.78333        35.91640         1.92683
O         21.14321        12.77390        -3.80123
O         15.38855        31.27303        -0.06385
O         20.38899        19.15687        -2.37215
O         23.18310        27.79540         2.93069
O         26.05559        24.56562         2.60058
O         32.77119        42.19997         2.61480
O         16.98759        31.44039         3.30297
O         24.67671        26.30048        -0.23068
O         27.61024        31.30055         3.66228
O         17.32653        26.22942        -0.72399
O         26.47169        50.06366        -2.69594
O         30.28244        26.62205         3.25442
O         12.44993        25.12166        -1.28744
O         26.42578        47.73237        -1.86997
O         20.96455        36.85441         0.48032
O         23.01791        19.20018         1.35034
O         24.97141        52.61537        -0.57331
O         18.96602        37.89011         3.26295
O         29.41325        16.94195         1.40944
O         26.60992        38.08240         3.54775
O         30.99826        35.52542        -0.21374
O         16.77250        38.93782         3.23842
O         14.60163        46.84049         0.64977
O         20.81359        50.22897         0.84988
O          8.69293        33.50452         2.29978
O         31.84914        29.04471         3.27646
O         18.70156        16.59462        -2.76494
O         32.70959        24.08134        -0.85902
O         23.99146        43.06815        -0.48798
O         22.99226        36.79720         3.54309
O         14.33148        22.38222         1.98678
H         13.59504        21.75507         2.15552
O         23.35430        10.79253        -0.90582
H         23.38898         9.88843        -0.52697
O         20.58121        42.04939         3.41760
H         20.28439        42.97879         3.61511
O         18.85678        47.95559        -2.03036
H         18.20824        48.08882        -2.75332
O         21.83667        22.11276         2.26845
H         22.50828        21.43051         2.48887
O         24.51306         9.77469        -4.28234
H         24.36659        10.68521        -4.64517
O         14.81606        35.28138        -0.77363
H         15.72319        34.90759        -0.92926
O         22.57250        49.09746        -2.61667
H         22.38250        49.69952        -3.36658
O         18.62021        14.76882         0.36505
H         18.57806        13.83731         0.66746
O         23.52463        49.54229         0.91239
H         22.75965        50.13164         1.13404
O         34.74221        25.35444         1.98059
H         35.06231        24.47413         2.26648
O         29.47296        29.57303         4.05669
H         29.73174        28.69763         4.41933
O         18.78968        48.78864         1.52646
H         19.35131        49.55131         1.80234
O         23.52777        12.17588        -4.29850
H         22.63238        12.29185        -4.70648
O         13.13502        33.46675         2.94880
H         13.77985        32.92733         3.45387
O         17.78944        19.75918        -2.51626
H         18.59888        20.14458        -2.92482
O         30.94908        31.86065         3.75796
H         30.75992        30.97979         4.16706
O         33.63696        26.64529        -1.25023
H         33.55586        27.55645        -1.60042
O         26.21382        23.23536        -0.80757
H         25.54243        23.78511        -1.26395
O         32.09591        39.55404         3.18826
H         32.31567        40.48178         3.45078
O         25.74746        41.25918        -0.73197
H         25.20709        41.92878        -1.22520
O         23.17019        40.83870         3.62657
H         22.31259        41.29608         3.82229
O         19.53200         5.77855        -1.98310
H         19.63728         5.94875        -1.02495
O         27.79964        53.39868         0.22801
H         27.45609        52.56919         0.64552
O         29.40541        20.48324         2.64286
H         30.15510        21.00025         3.03049
O         30.61289        44.94328         2.89646
H         29.84046        45.52812         3.08644
O         26.80859        38.90566        -0.06156
H         26.53951        39.63842        -0.67361
O         26.92339        33.95377         0.47098
H         26.14789        34.52494         0.23587
O         16.71189        44.39899         2.81451
H         15.94321        43.88024         3.14041
O         38.23696        31.46546        -2.43848
H         37.39973        30.95766        -2.50709
O         12.24923        33.57755        -0.58280
H         11.47390        33.99969        -1.02051
O         19.38896        39.53782        -0.01301
H         20.07623        38.88348        -0.27512
O          9.15022        26.83184         2.30605
H          9.12989        27.78073         2.55702
O         27.49980        50.67231         0.49301
H         28.07553        50.32695         1.22834
O         27.75905        13.91618         0.50780
H         28.33909        14.29419         1.20251
O         35.37168        33.13153         2.72764
H         36.24528        32.92911         3.13026
O         25.34071        36.05070         0.77896
H         25.87239        36.76602         0.35843
O         26.56779        22.05282         2.64214
H         27.26337        21.48105         3.03617
O         14.93340        40.61809         3.07777
H         15.33341        39.93995         3.67571
O         13.48836        37.61441        -0.82206
H         14.01672        36.81997        -1.11221
O         22.18076        47.39735         2.13987
H         22.84477        48.13125         2.08501
O         15.15329        39.73688        -0.46063
H         14.59599        39.11897        -1.00064
O         10.77854        35.99441         2.89681
H         11.62060        36.30846         3.28746
O         12.92959        45.35250        -2.18651
H         13.68248        44.76059        -2.39002
O         14.91535        25.68025        -1.57903
H         14.05894        25.88002        -2.02285
O         29.44379        30.72406         0.58880
H         29.35101        31.60438         0.16397
O         22.10231        25.58987        -1.01931
H         22.95928        26.05397        -1.18103
O         27.20906        35.26013         3.90090
H         27.21288        36.18624         4.23394
O         17.99121        24.54801         2.41807
H         18.75799        24.11606         2.85039
O         24.72724        34.90833         4.21791
H         24.33500        35.67051         4.69815
O         29.24184        49.12087         1.69156
H         28.79231        48.53018         2.34266
O         34.38039        33.63972        -0.73497
H         33.58389        34.05976        -1.12494
O         19.39193        44.31245         2.97386
H         18.43866        44.41157         3.23543
O         16.89162        28.98488         3.24822
H         16.95672        29.82565         3.79506
O          9.89025        35.08765        -0.52359
H          9.84913        35.96119        -0.96877
O         19.42768        21.68959        -1.88918
H         20.11216        22.37317        -2.04691
O         27.46433        14.69270        -3.05837
H         26.79473        14.43410        -3.72613
O         18.56743        19.68580         1.06330
H         18.55961        20.35067         1.78379
O         10.61119        31.57058         3.17108
H          9.89624        32.19310         3.43398
O         19.68008        42.41763        -0.17391
H         19.59490        41.45856        -0.39769
O         23.55143        45.01988         2.58567
H         22.98726        45.78731         2.85462
O         31.05092        22.69057         2.81367
H         30.56176        23.35412         3.34904
O         22.28155        34.03236        -0.05588
H         21.71299        34.78126        -0.34088
H          5.43175        31.38703        -1.17368
H          5.23566        33.79229        -0.67365
H          7.62038        27.02597        -0.34025
H          6.59606        29.19971        -0.90374
H          6.28165        35.86360         0.35987
H          7.41045        37.94996         1.05348
H          9.86802        22.61805         0.20812
H          8.62396        24.73306         0.67507
H          8.61295        40.11567         0.87639
H          9.83816        42.26666         0.55941
H         12.39178        18.37886        -0.23371
H         11.12747        20.51325         0.03865
H         11.08667        44.25500        -0.14778
H         12.03969        46.22776        -0.55056
H         14.89465        14.21454        -1.07726
H         13.66377        16.27330        -0.52764
H         14.23093        47.69521        -2.58009
H         15.01404        50.06995        -2.41136
H         17.34655        10.07308        -2.12990
H         16.11390        12.13248        -1.63462
H         16.03924        52.32082        -2.58857
H         17.24533        54.47031        -3.16418
H         20.54384         6.03898        -3.74871
H         18.57121         7.95565        -2.45128
H         18.49881        56.48460        -3.91327
H         19.78090        58.42929        -4.75098
H         23.07288         2.52771        -1.29349
H         20.97214         3.73295        -1.91816
H         23.23622        61.42384        -6.19659
H         21.06213        60.28649        -5.77574
H         25.25159         3.73665        -1.27755
H         26.53958         5.81129        -1.63425
H         26.58447        58.62402        -4.27462
H         25.36423        60.45508        -5.35215
H         27.82168         7.87384        -2.00368
H         29.10141         9.94857        -1.92207
H         29.02510        54.91680        -2.04166
H         27.85625        56.70828        -3.29116
H         30.39337        12.11541        -1.85539
H         31.60460        14.23026        -1.36667
H         31.62012        50.59523        -1.02365
H         30.35846        52.86801        -1.17262
H         32.79201        16.29713        -0.83498
H         33.98178        18.37440        -0.59371
H         33.88392        46.38924        -0.16798
H         32.68418        48.40001        -0.71416
H         35.20238        20.46431        -0.47388
H         36.36452        22.67239        -0.68934
H         36.30687        42.20989        -0.13517
H         35.06952        44.33851        -0.03889
H         37.43960        24.85969        -1.02722
H         38.65308        26.99781        -1.07741
H         38.69745        37.99028        -0.44070
H         37.50956        40.09566        -0.21602
H         39.76701        29.16959        -1.43024
H         41.00960        31.33508        -1.49647
H         41.22190        33.69660        -0.85541
H         40.01702        35.84152        -0.51616
