         276
 CSIRO Nanostructure Databank - Neutral Graphene Oxide Data Set
C        -11.02967         0.72028         0.94947
C         -9.81841         1.40854         0.47136
C         -8.69171         0.63051         0.18254
C         -7.48545         1.23542        -0.41165
C         -6.17756         0.44968        -0.32620
C         -4.81737         1.17212        -0.43472
C         -3.66693         0.60616         0.43078
C         -2.55382         1.32826         0.75171
C         -1.36370         0.75205         1.45607
C         -0.04252         1.51516         1.43765
C          1.21543         0.83624         1.92888
C          2.58320         1.60544         1.87717
C          3.84893         0.79237         1.58377
C          5.02113         1.43630         1.29775
C          6.32673         0.70295         1.03676
C          7.57898         1.54353         1.32736
C          8.89776         0.83902         1.25122
C         10.19377         1.55658         0.88165
C         10.78437         0.96716        -0.39111
C         -9.79120         2.81984         0.34794
C         -8.66882         3.53005        -0.15641
C         -7.55281         2.72470        -0.82333
C         -6.13213         3.44121        -0.77503
C         -4.99241         2.65662        -0.02824
C         -3.63733         3.36001        -0.28781
C         -2.55381         2.84113         0.71367
C         -1.23010         3.50980         0.35064
C          0.06238         2.67687         0.45371
C          1.33927         3.49620         0.63079
C          2.50421         2.86963         1.01667
C          3.79650         3.52305         0.74124
C          5.10857         2.96928         1.27233
C          6.26143         3.61283         0.51483
C          7.48357         3.05817         1.18866
C          8.76882         3.69965         0.72195
C          9.97081         3.02747         0.65564
C         -8.69200         4.91082        -0.29627
C         -7.47927         5.62548        -0.87736
C         -6.29681         4.86391        -0.16383
C         -4.96942         5.60957        -0.20753
C         -3.69396         4.86060        -0.13833
C         -2.42484         5.47373        -0.61949
C         -1.19777         4.77618        -0.13212
C          0.01896         5.62131         0.12588
C          1.34047         4.85603         0.08961
C          2.50961         5.52743        -0.15787
C          3.80153         4.88147         0.09785
C          4.99038         5.76003         0.46601
C          6.25661         4.96298         0.25704
C          7.49426         5.69504        -0.01980
C          8.71893         5.00748         0.17317
C         -7.38407         7.12152        -0.70635
C         -6.18518         7.78837        -0.06571
C         -4.98534         7.02143        -0.68088
C         -3.71433         7.68113        -1.11757
C         -2.44612         6.86353        -1.16978
C         -1.13306         7.59664        -1.27265
C          0.06030         6.93157        -0.67818
C          1.33955         7.59739        -0.25831
C          2.51701         6.85165        -0.91504
C          3.77103         7.69351        -0.83414
C          4.98646         7.16845        -0.14053
C          6.31376         7.92399        -0.19803
C          7.49309         7.02266        -0.42604
C         -6.01627         9.26853        -0.33035
C         -4.84301         9.85851        -0.65468
C         -3.59361         9.15223        -0.96449
C         -2.39790         9.78110        -1.13262
C         -1.14554         9.09097        -1.65891
C          0.15256         9.77137        -1.19536
C          1.38927         9.51426        -1.63236
C          2.63355         9.66996        -2.06459
C          3.89025         8.79515        -1.89494
C          5.13945         9.62288        -1.67365
C          6.24264         9.15795        -1.07285
C        -11.15384        -0.62524         0.94112
C        -10.01948        -1.49288         0.41524
C         -8.70605        -0.77450         0.75044
C         -7.50426        -1.64068         0.46656
C         -6.20293        -1.00123         0.12931
C         -4.94496        -1.64502         0.60157
C         -3.70076        -0.83865         0.73322
C         -2.69893        -1.44464         1.72442
C         -1.36252        -0.71220         1.80052
C         -0.07030        -1.44512         1.75496
C          1.13415        -0.69710         2.31812
C          2.48591        -1.44842         2.06239
C          3.80347        -0.67055         1.90848
C          5.11073        -1.44529         1.78869
C          6.40857        -0.68291         1.66869
C          7.71229        -1.43854         1.57923
C          8.93117        -0.66342         1.13364
C          9.87184        -1.27885         0.07073
C         10.60675        -0.30857        -0.77024
C        -10.00309        -2.94312         0.84744
C         -8.80629        -3.67427         1.01619
C         -7.54887        -2.98437         1.07098
C         -6.32297        -3.66801         1.44125
C         -5.03779        -2.83445         1.61368
C         -3.73849        -3.62002         1.46449
C         -2.59181        -2.89499         1.37557
C         -1.28675        -3.39922         0.87584
C         -0.01935        -2.76699         1.38213
C          1.24534        -3.51297         1.27680
C          2.45018        -2.90870         1.62188
C          3.75882        -3.64310         1.44663
C          5.08782        -2.92292         1.55842
C          6.37942        -3.63628         1.17811
C          7.70213        -2.93657         1.31759
C          8.97537        -3.54893         0.66002
C          9.51884        -2.60389        -0.36979
C         -8.76347        -5.10110         0.88161
C         -7.54033        -5.81955         0.73212
C         -6.29898        -5.19550         1.27470
C         -4.97906        -5.89661         1.08603
C         -3.64594        -5.11264         1.20452
C         -2.84303        -5.18097        -0.11610
C         -1.35879        -4.66888         0.09813
C         -0.18652        -5.63239         0.29341
C          1.15713        -4.94537         0.77451
C          2.45613        -5.63428         0.42255
C          3.77111        -4.97569         0.75172
C          4.99666        -5.46277         0.01592
C          6.31065        -4.80588         0.24448
C          7.57231        -5.56472        -0.00843
C          8.75820        -4.94535         0.12200
C         -7.50456        -7.07646         0.15164
C         -6.26631        -7.90277        -0.09261
C         -4.97172        -7.21025         0.35725
C         -3.77096        -7.53344        -0.47423
C         -2.94243        -6.51482        -0.77724
C         -1.00853        -7.31711        -1.46600
C         -0.00329        -6.73749        -0.76920
C          1.27953        -7.44151        -0.98976
C          2.51550        -6.76841        -0.56325
C          3.76060        -7.59716        -0.64112
C          5.04386        -6.91359        -0.38728
C          6.25478        -7.73963         0.01973
C          7.51804        -7.01535        -0.49463
C         -6.19002        -8.37075        -1.53624
C         -5.05876        -8.83982        -2.08152
C         -3.76693        -8.85561        -1.28559
C         -2.53052        -9.04075        -2.14386
C         -1.16955        -8.84499        -1.55450
C          0.12531        -9.37815        -2.24704
C          1.32493        -8.86717        -1.44826
C          2.42325        -9.61818        -1.21311
C          3.62173        -9.09857        -0.43093
C          4.94792        -9.75405        -0.75905
C          6.12362        -9.14750        -0.53078
O          7.22286        -0.91854         2.84300
O         -3.92189        -1.70981        -0.44090
O          8.33746         1.23943         2.53426
O          5.55323         3.34826         2.63734
O          2.03039        -6.49076        -1.91363
O         -0.18397         6.84704        -2.10824
O          3.28468        -1.04896         3.21935
O         -4.24692         5.44314         1.06738
O         -5.21292        -2.27888         2.88308
O          7.23520        -3.83622         2.35200
O         -2.89763         3.23632         2.00078
O         -4.74141         7.24269        -2.08146
O          0.40066         1.70327         2.79723
O         -1.54723         0.31042         2.83043
O          5.52460        -4.51952        -0.97051
O         -7.96935         2.72583        -2.21013
O         -2.49187         5.72138        -2.07041
O         -4.88833        -7.17582         1.81791
O          4.61809        -7.19051        -1.75170
O          0.18329         2.10550        -0.81864
O          1.77569        -5.93457         1.67050
O         10.19341        -1.20052         1.51754
O          3.92847        -4.90181         2.19633
O          7.07431         3.50813         2.56930
O          5.21885        -2.38604         2.89271
O         -6.93692        -1.79602        -0.87148
O         -1.16465        -3.44934        -0.64342
O          4.02945         8.06105         0.55025
O          4.03676         3.70666        -0.73160
O          1.44975         8.14837         0.83631
O         -2.12320        -6.59558        -1.90229
O         -6.52668        -4.60787         2.56047
O         -5.64551         3.58786        -2.11186
H         -6.13066         4.33672        -2.54778
O          4.12691         8.17071        -3.17843
H          3.39241         7.53147        -3.34072
O        -10.13461        -1.51846        -1.03423
H        -10.97212        -1.96806        -1.27039
O          9.93406        -3.69928         1.73221
H          9.43730        -3.93125         2.54619
O          4.90105         5.94598         1.90337
H          4.42117         6.78960         2.06346
O          6.36034         0.43476        -0.40687
H          5.92009         1.17683        -0.87649
O          3.34470        -9.32545         0.97485
H          4.17488        -9.18106         1.47915
O         -3.50855        -4.29960        -1.03797
H         -2.88248        -3.56422        -1.26261
O         -3.11793         3.08583        -1.57580
H         -3.84326         3.16278        -2.24000
O         -0.13981         6.02431         1.51359
H          0.47613         6.77287         1.70503
O         -6.15055         7.60434         1.35579
H         -6.33008         6.65197         1.56134
O         11.14168         1.38453         1.95500
H         10.63889         1.41777         2.79748
O         -2.88131        -5.69362         2.25833
H         -3.47359        -5.86380         3.01964
O         -4.42644         1.02401        -1.80320
H         -4.31489         0.06371        -1.97463
O         -8.62781        -0.62180         2.19432
H         -9.43655        -0.16165         2.50669
O          6.31827        -7.83725         1.46273
H          6.40756        -6.93793         1.84553
O          8.67923        -7.72245        -0.07370
H          8.53743        -7.99741         0.85755
O         -3.82114        -9.93683        -0.31464
H         -4.67861        -9.84604         0.17729
O         -6.92617         0.51373        -1.56949
H         -7.46193         2.00217        -2.65188
O         -6.70481         4.81555         1.21458
H         -6.07393         4.20534         1.68318
O         -6.35744        -9.11389         0.72228
H         -6.21738        -8.82667         1.65392
O          0.89305        -0.75891         3.72930
H          1.72163        -0.48937         4.18665
O          0.20228        -8.89186        -3.58438
H          0.59745        -7.99447        -3.57717
O         -1.11839        -9.33676        -0.20645
H         -2.02722        -9.60978         0.07201
O          6.54646         8.44987         1.14751
H          5.68609         8.82251         1.44730
O         -1.22701         9.13918        -3.09327
H         -0.69218         8.39234        -3.44231
O         -7.47690         5.40302        -2.31123
H         -8.05640         4.62427        -2.50978
O         -0.63590        -6.41585         1.41444
H          0.15258        -6.82824         1.83878
O         -3.25628        -1.39368         3.04948
H         -3.21836        -0.46179         3.37083
O          2.29958         6.52839        -2.29905
H          1.56950         5.87719        -2.38689
O         -5.30364         2.64283         1.37206
H         -4.45132         2.84862         1.89251
O          2.82968         2.08359         3.22125
H          1.96229         2.38421         3.58274
H         11.04125        -0.67576        -1.71216
H         11.38138         1.63912        -1.02622
H         10.84818         3.59143         0.29987
H          9.66168         5.49577        -0.11531
H          8.46301         7.50835        -0.61805
H          7.14156         9.79456        -1.04518
H          5.18354        10.58931        -2.20064
H          2.78676        10.47729        -2.80884
H          0.06807        10.41461        -0.29779
H         -2.35404        10.87543        -1.01548
H         -4.81073        10.95676        -0.73300
H         -6.88938         9.91007        -0.13431
H         -7.81472         7.67029        -1.56415
H         -9.49524         5.49058         0.18379
H        -10.67693         3.39316         0.66157
H        -11.87380         1.34934         1.27223
H        -12.10226        -1.09610         1.24270
H        -10.93119        -3.51489         0.68068
H         -9.69786        -5.61824         0.61577
H         -8.45850        -7.53530        -0.15240
H         -7.12475        -8.37113        -2.11761
H         -5.05636        -9.20446        -3.12071
H         -2.63392        -8.89993        -3.23302
H          0.12159       -10.49559        -2.27910
H          2.44974       -10.66555        -1.55485
H          4.93447       -10.78419        -1.14831
H          7.06450        -9.68053        -0.73889
H          7.50076        -7.01695        -1.61490
H          9.67450        -5.52499        -0.07159
H          9.56023        -2.87384        -1.43364
