         651
 CSIRO Nanostructure Databank - Neutral Graphene Oxide Data Set
C          5.86798        31.84374         0.73633
C          5.85839        33.21498         0.77422
C          8.34748        27.56935         0.33374
C          8.34431        28.96421         0.39493
C          7.10454        29.70527         0.46390
C          8.36319        31.79401         0.76968
C          7.08201        31.07003         0.65042
C          8.35734        33.30997         0.74982
C          7.05359        34.01419         0.70613
C          8.25213        36.15858         0.59786
C          7.04126        35.39524         0.69983
C          8.26412        37.54191         0.63904
C         10.77523        23.21436         0.12499
C         10.75315        24.64441         0.16058
C          9.55430        25.39967         0.22384
C         10.80979        27.52198         0.29595
C          9.56218        26.81452         0.27638
C         10.82971        28.96660         0.33681
C          9.59445        29.68444         0.36682
C         10.79685        31.84989         0.24013
C          9.61098        31.10439         0.41295
C         10.75472        33.29669         0.10642
C          9.56564        33.98871         0.25801
C         10.76898        36.23505         0.03106
C          9.48745        35.45624         0.12958
C         10.73949        37.48886         0.91542
C          9.49539        38.28576         0.56630
C         10.74765        40.39237         0.24150
C          9.53930        39.61849         0.22880
C         10.76813        41.72494        -0.09309
C         13.32215        18.86776         0.08598
C         13.16906        20.26317        -0.32999
C         11.95983        21.04705        -0.00964
C         13.27289        23.14536        -0.00547
C         11.96125        22.43946         0.00102
C         13.26535        24.63426         0.11839
C         11.98479        25.37277         0.14406
C         13.31047        27.45601         0.39803
C         12.01055        26.76714         0.23198
C         13.31257        28.97589         0.49062
C         12.03792        29.70228         0.34796
C         13.26912        31.83961         0.16667
C         12.05111        31.13119         0.21315
C         13.29391        33.26645        -0.18772
C         11.99628        34.01520        -0.31654
C         13.28929        36.03715         0.55237
C         12.09827        35.56407        -0.33600
C         13.35178        37.56752         0.69584
C         12.04872        38.28735         0.93193
C         13.25833        40.46141         0.48366
C         11.96760        39.80937         0.91658
C         13.22217        41.84125         0.29806
C         11.96183        42.52362         0.06315
C         13.12391        44.68822         0.07554
C         11.93993        43.90002        -0.09997
C         13.13480        46.07208        -0.14846
C         15.84833        14.65358         0.24240
C         15.80367        16.01074         0.29762
C         14.49442        16.74304         0.46620
C         15.77267        18.88114        -0.25538
C         14.52244        18.20292         0.04677
C         15.76034        20.27563        -0.47600
C         14.48795        21.00273        -0.59209
C         15.72673        23.12661        -0.51426
C         14.52224        22.46041        -0.42908
C         15.71378        24.59859        -0.68855
C         14.46169        25.37080        -0.39167
C         15.71831        27.50921        -0.21145
C         14.54413        26.80633        -0.06867
C         15.72446        28.94985        -0.06582
C         14.56732        29.65553         0.15678
C         15.79393        31.88216        -0.15185
C         14.55614        31.13302         0.22618
C         15.76747        33.34595        -0.34844
C         14.57263        34.02758        -0.16008
C         15.72771        36.18524        -0.20508
C         14.57623        35.45659         0.00304
C         15.74089        37.68498        -0.38953
C         14.53492        38.35508         0.24321
C         15.72898        40.53327         0.05718
C         14.48791        39.73383         0.28926
C         15.71132        41.94015         0.49476
C         14.43203        42.61449         0.40138
C         15.51741        44.77515         0.81696
C         14.34394        44.00135         0.41011
C         15.54207        46.25642         0.52069
C         14.32205        46.85751        -0.07563
C         15.59368        48.93104        -0.44313
C         14.35552        48.19834        -0.41093
C         15.59559        50.29796        -0.60945
C         18.33210        10.36223        -0.08835
C         18.32036        11.77690         0.07952
C         17.10155        12.50762         0.07616
C         18.33373        14.59799         0.21761
C         17.09608        13.90512         0.19357
C         18.36836        16.06544         0.31582
C         17.04830        16.81035         0.35299
C         18.25430        18.83372        -0.44243
C         17.03970        18.20322        -0.13046
C         18.20498        20.25054        -0.84710
C         16.96895        21.00942        -0.61903
C         18.24051        23.14118        -0.61716
C         16.99022        22.42230        -0.64299
C         18.23212        24.59271        -0.17350
C         17.01716        25.33076        -0.70541
C         18.27487        27.47512        -0.14232
C         16.99254        26.81107        -0.53649
C         18.25728        28.97048        -0.21868
C         16.96133        29.65301        -0.50517
C         18.24507        31.89328        -0.79399
C         16.95734        31.12970        -0.69621
C         18.24090        33.34088        -0.48634
C         17.01074        34.03053        -0.45325
C         18.30830        36.25098        -0.39038
C         16.97186        35.49209        -0.54738
C         18.29051        37.69809        -0.01573
C         17.07544        38.35255        -0.02468
C         18.30029        40.54989         0.42381
C         17.07610        39.82657         0.00473
C         18.17627        41.90427         0.77245
C         16.89951        42.59382         0.80916
C         18.05741        44.88651         1.17571
C         16.80136        44.05225         1.12539
C         18.07442        46.23614         0.55292
C         16.85434        46.90856         0.29789
C         18.08940        48.80671        -0.59325
C         16.85637        48.20181        -0.27434
C         18.13335        50.19925        -1.07123
C         16.82569        51.02585        -0.93970
C         18.21459        53.06850        -0.69653
C         16.97491        52.43242        -0.62350
C         18.33523        54.45480        -0.40840
C         20.76863         6.12584        -0.81973
C         20.75819         7.51171        -0.53986
C         19.54655         8.24216        -0.46403
C         20.80021        10.28691         0.03757
C         19.54056         9.62364        -0.18281
C         20.80880        11.71863         0.51113
C         19.55193        12.48248         0.19793
C         20.80336        14.63680         0.07304
C         19.56123        13.89109         0.18398
C         20.78096        16.01280        -0.19163
C         19.58093        16.76946        -0.13887
C         20.76730        18.89932        -0.63888
C         19.53094        18.15733        -0.42827
C         20.77247        20.30671        -0.74831
C         19.51364        21.04096        -0.94942
C         20.72035        23.20517        -0.54895
C         19.46837        22.49166        -0.70312
C         20.74503        24.62208        -0.50028
C         19.53191        25.34626        -0.41482
C         20.77879        27.50536        -0.42225
C         19.54873        26.74726        -0.35699
C         20.69885        28.95523        -0.49335
C         19.52646        29.65801        -0.48217
C         20.70960        31.86521        -0.23251
C         19.53368        31.12863        -0.70394
C         20.68607        33.22422        -0.00880
C         19.46651        34.00827        -0.22188
C         20.63183        36.10379         0.35009
C         19.47408        35.42437        -0.06704
C         20.72499        37.52782         0.26109
C         19.56834        38.39506         0.16625
C         20.76763        40.63506         0.59156
C         19.58201        39.83909         0.38220
C         20.71391        42.01875         1.02598
C         19.39016        42.65668         1.17945
C         20.58324        45.03796         1.31136
C         19.35252        44.14792         1.33734
C         20.57171        45.93969         0.06960
C         19.30204        46.79777         0.10243
C         20.53788        48.67876        -1.02648
C         19.30134        48.09319        -0.43857
C         20.62389        50.14104        -1.16965
C         19.41960        50.90898        -1.03090
C         20.66564        53.00898        -1.10028
C         19.42768        52.31543        -0.97362
C         20.76445        54.38677        -0.83060
C         19.57648        55.10448        -0.42587
C         20.90639        57.12231         0.01698
C         19.67830        56.46793        -0.03186
C         20.93417        58.58540         0.41243
C         23.18981         3.33195        -1.38517
C         21.98801         4.02553        -1.23665
C         23.22712         6.09446        -0.70223
C         21.97979         5.41269        -0.91170
C         23.24065         7.47239        -0.38563
C         22.00709         8.18707        -0.31444
C         23.27699        10.26020         0.40354
C         21.99270         9.58059        -0.00839
C         23.25285        11.74237         0.13901
C         22.08353        12.44118         0.13504
C         23.24622        14.59061        -0.09113
C         22.06270        13.90571         0.04040
C         23.26797        16.09000         0.01387
C         22.04215        16.69537        -0.67198
C         23.24746        18.86871        -0.56712
C         22.02960        18.20180        -0.54248
C         23.26637        20.32081        -1.00045
C         21.97993        21.06447        -0.68952
C         23.16495        23.18785        -0.10826
C         21.94881        22.45777        -0.55444
C         23.21270        24.68283        -0.04493
C         22.05253        25.37469        -0.72686
C         23.29305        27.60441        -0.46760
C         22.02947        26.86764        -0.46702
C         23.22412        28.98371        -0.64238
C         21.93383        29.74358        -0.81537
C         23.16852        31.93267        -0.26291
C         21.95397        31.04897         0.02626
C         23.10915        33.21668         0.52203
C         21.88821        33.87037         0.53010
C         23.05708        36.00332         1.17999
C         21.76643        35.30635         0.87034
C         23.20775        37.33700         0.58058
C         22.08195        37.99904         0.12540
C         23.25137        40.84634         0.69436
C         22.09850        40.22842         0.24096
C         23.13319        42.01015         1.66448
C         21.84106        42.74099         1.38870
C         23.16125        44.89827         1.10380
C         21.86486        44.21933         1.49095
C         23.09307        46.17274         0.33401
C         21.88895        46.70038        -0.09607
C         23.12461        48.65331        -1.21446
C         21.86685        47.92529        -0.92033
C         23.08277        50.01726        -1.62201
C         21.84616        50.75978        -1.48070
C         23.14629        53.00088        -1.62273
C         21.82092        52.24131        -1.60084
C         23.22547        54.38550        -1.14768
C         22.03188        55.08813        -0.83533
C         23.36825        57.16671        -0.34528
C         22.07888        56.44448        -0.38618
C         23.46641        58.43201         0.41134
C         22.30054        59.10872         0.79554
C         23.66223        60.88400         1.75973
C         22.40402        60.33609         1.47067
C         24.41132         3.97666        -1.22021
C         25.68953         6.00335        -0.71064
C         24.46988         5.36272        -0.87028
C         25.80892         7.41863        -0.24177
C         24.50003         8.18892        -0.26522
C         25.76981        10.31234        -0.23151
C         24.52918         9.55932        -0.09257
C         25.78949        11.69529        -0.13645
C         24.56708        12.45875         0.30901
C         25.79339        14.58060        -0.42897
C         24.50198        13.84471        -0.27983
C         25.80139        16.05866        -0.40858
C         24.55776        16.76464        -0.41910
C         25.76308        18.91340        -0.68522
C         24.50207        18.15261        -0.55518
C         25.75274        20.32561        -0.14135
C         24.52887        21.08594        -0.61999
C         25.64010        23.11279         0.57238
C         24.48154        22.50968        -0.21920
C         25.66022        24.63595         0.38997
C         24.53638        25.35982         0.05684
C         26.02085        27.31105        -0.36493
C         24.57588        26.90064         0.10921
C         26.25371        28.78774        -0.39812
C         24.36236        29.88351        -0.71416
C         25.78319        31.84122        -0.04515
C         24.44303        31.13837        -0.18021
C         25.60422        33.20602         0.63631
C         24.39008        33.81029         0.88797
C         25.54925        35.98943         1.65072
C         24.30986        35.20674         1.41870
C         25.58640        37.43575         1.28943
C         24.53273        37.92347         0.56045
C         25.64228        40.64654         1.30770
C         24.54914        40.23172         0.59431
C         25.66293        42.06409         1.85430
C         24.40121        42.81543         1.51380
C         25.65953        44.76282         0.68450
C         24.42130        44.10108         1.05424
C         25.60939        46.02978         0.06234
C         24.34494        46.71211        -0.16539
C         25.53338        48.16187        -1.68651
C         24.31852        47.85461        -1.00045
C         25.53436        50.18684        -2.33994
C         24.29799        50.81194        -1.91792
C         25.63369        52.91052        -1.72961
C         24.35724        52.17874        -1.70331
C         25.68471        54.21553        -1.04845
C         24.52374        54.94220        -0.88052
C         25.93013        56.91286        -0.06561
C         24.63595        56.38207        -0.56277
C         25.94744        58.23341         0.45047
C         24.75671        58.96289         0.72662
C         24.82247        60.21483         1.39712
C         26.93955         8.16931        -0.96730
C         28.21036        10.27732        -0.53256
C         27.01374         9.61616        -0.54213
C         28.29799        11.71609        -0.36507
C         27.02765        12.43956        -0.23181
C         28.32138        14.54557         0.06577
C         27.03183        13.82147        -0.20183
C         28.27462        16.03267        -0.20877
C         27.03841        16.71884        -0.40402
C         28.28651        18.90834        -0.16698
C         27.07052        18.17760        -0.57962
C         28.27793        20.31125        -0.03490
C         27.05116        21.10941        -0.45719
C         28.12826        23.11211         0.53680
C         26.98605        22.48755         0.17889
C         28.07077        24.47040         1.15238
C         26.90952        25.29485         0.73102
C         28.20345        27.40619         0.98519
C         27.06255        26.65319         0.52711
C         28.18821        28.80599         0.99216
C         27.06529        29.53523         0.39897
C         28.15799        31.75765         0.97125
C         26.83349        31.00753         0.78723
C         28.15048        33.14580         1.04155
C         26.91189        33.97998         0.73696
C         28.11317        36.03693         1.70847
C         26.85092        35.24159         1.60006
C         28.09124        37.51452         1.68616
C         26.78915        38.24078         1.68940
C         28.11672        40.49660         1.77559
C         26.78830        39.76980         1.70800
C         28.15674        41.99448         1.52825
C         26.91551        42.74732         1.35092
C         28.14467        44.66765         0.37805
C         26.90964        44.04565         0.83402
C         28.08507        45.98174        -0.15823
C         26.85267        46.63242        -0.37725
C         28.01011        48.42736        -1.79183
C         26.79295        47.77356        -1.25467
C         28.02711        49.90734        -2.25741
C         26.79754        50.71563        -2.18359
C         28.20704        52.75663        -1.52839
C         26.91583        52.16197        -1.95481
C         28.22596        53.99607        -0.95631
C         26.97748        54.64313        -0.39691
C         27.06627        56.12365        -0.15320
C         29.48333        12.39569        -0.49985
C         30.77054        14.62829        -0.26337
C         29.50292        13.90176        -0.65658
C         30.74944        15.99906        -0.07068
C         29.48006        16.72810        -0.12672
C         30.69746        18.86253         0.22506
C         29.48681        18.17003        -0.02577
C         30.66550        20.25743         0.41200
C         29.46757        20.99095         0.27912
C         30.63862        23.18827         0.83431
C         29.46467        22.51060         0.16512
C         30.62500        24.46519         1.29340
C         29.33743        25.17863         1.51594
C         30.68205        27.34701         1.48849
C         29.33058        26.69606         1.73179
C         30.67330        28.82349         1.29020
C         29.38307        29.58234         1.25046
C         30.69615        31.72276         1.11604
C         29.37075        30.97566         1.18349
C         30.60365        33.16494         1.56806
C         29.35388        33.92131         1.31810
C         30.62300        36.04802         1.87553
C         29.37283        35.28712         1.49109
C         30.52863        37.48952         1.44269
C         29.31319        38.19504         1.50817
C         30.51575        40.34747         0.86844
C         29.37529        39.69515         1.56336
C         30.51166        41.70370         0.47588
C         29.44056        42.60701         0.91904
C         30.55518        44.46753        -0.27262
C         29.36170        43.93568         0.30411
C         30.69070        45.97729        -0.28488
C         29.35464        46.69440        -0.44631
C         30.55164        48.51896        -1.84605
C         29.31388        47.96048        -1.23583
C         30.53438        49.83845        -2.23867
C         29.32636        50.62968        -2.12312
C         29.38816        51.96871        -1.80927
C         31.96351        16.75663         0.07860
C         33.19291        18.89050         0.20476
C         31.96927        18.14438         0.20491
C         33.21657        20.27953         0.35812
C         31.93657        20.94990         0.70216
C         33.14164        23.18936         0.56829
C         31.91206        22.42097         0.89131
C         33.11252        24.63506         0.93064
C         31.91319        25.14816         1.73298
C         33.17227        27.34342         1.83943
C         31.85129        26.66357         1.60875
C         33.20507        28.86099         1.90539
C         31.95061        29.56543         1.48068
C         33.17776        31.74469         1.54180
C         31.87138        31.02418         1.86008
C         33.16639        33.13807         1.40845
C         31.91254        33.89611         1.64487
C         33.04523        36.01780         1.11560
C         31.90711        35.35952         1.45279
C         33.07000        37.49440         0.95461
C         31.76647        38.21543         1.14369
C         32.55175        39.96870        -0.43014
C         31.60543        39.53711         0.51436
C         32.46031        41.29215        -0.90718
C         31.54559        42.21985        -0.35946
C         32.92602        44.29213        -0.97518
C         31.66639        43.66068        -0.56885
C         32.92827        45.63841        -1.31739
C         31.76282        46.45663        -1.24502
C         31.72347        47.69599        -1.85474
C         34.40412        21.05246         0.29522
C         35.59756        23.22399         0.40116
C         34.42187        22.46088         0.41803
C         35.61919        24.62345         0.67753
C         34.40734        25.33446         1.05273
C         35.71997        27.33709         1.60288
C         34.43143        26.63338         1.50870
C         35.73209        28.89547         1.71052
C         34.45508        29.61455         1.69723
C         35.63146        31.76406         1.28827
C         34.41910        31.02716         1.47260
C         35.59215        33.16611         1.09504
C         34.35506        33.84963         1.13507
C         35.60311        36.05503         0.56887
C         34.35653        35.32295         1.06550
C         35.53404        37.55068         0.15261
C         34.07710        38.03290        -0.01132
C         35.66991        40.19954        -1.44509
C         33.71502        39.13866        -0.73038
C         35.66717        41.57079        -1.31954
C         34.43895        42.33638        -1.39250
C         34.22977        43.62559        -0.98672
C         36.82298        25.34394         0.60636
C         38.03383        27.47691         0.68411
C         36.89737        26.71198         0.96614
C         38.04874        28.89627         0.79425
C         36.92613        29.58945         1.20730
C         38.12238        31.79353         0.83327
C         36.96406        31.06690         1.46763
C         38.03273        33.15321         0.80943
C         36.79784        33.90036         0.74399
C         37.76454        35.72676        -0.70732
C         36.77163        35.20121         0.21696
C         37.61447        37.01021        -1.21456
C         36.57224        37.93769        -0.90634
C         36.74497        39.24247        -1.35398
C         39.25504        29.61641         0.21619
C         40.41998        31.68857        -0.34511
C         39.45861        31.09045         0.68525
C         40.39321        32.87475        -0.99716
C         39.49574        33.95554        -0.60197
C         38.82525        34.90354        -1.31186
O         18.80809        20.57073        -2.14719
O         32.82406        38.21501         2.21336
O          8.52437        32.57286         2.01048
O         26.52918        39.01435         2.93848
O         12.91881        37.92779         2.06412
O         35.97440        28.01599         2.86272
O         28.97641        40.15267         2.89664
O         22.08094        35.77475         2.23907
O         31.55272        29.22054         0.12078
O         25.47198        22.76174         1.92863
O         13.41385        28.13327         1.69210
O         22.89050        23.90394         1.14869
O         24.68769        39.08648        -0.19917
O         24.77222        35.48785         2.78792
O         13.64705        20.53557        -1.70540
O         34.46659        39.57093        -1.81645
O         25.48874        29.39942        -1.37789
O         17.28325        44.61422         2.38397
O         17.35509        50.56137        -2.24389
O         13.51220        23.82257         1.31060
O         24.80721        22.14649        -1.59900
O         28.50911        24.51741         2.55455
O         31.19407        33.47583         2.86584
O         15.52484        31.59614         1.27108
O         17.17081        26.18836        -1.86315
O         12.58447        33.45304        -1.52681
O         26.30562        52.94146        -3.05531
O         14.81207        25.01786        -1.77061
O         18.20679        28.27015         1.07935
O         35.31476        35.93226         2.00680
O         22.33871        52.80207        -2.84529
O         26.53306        18.66580        -1.89663
O          9.90062        36.14870        -1.12115
O         15.22775        45.76753         1.86134
O         16.42753        40.36871        -1.21679
O         29.36255        48.01703         0.23732
O         32.85257        24.21681        -0.44519
O         25.05626        14.01695        -1.61416
O         27.47427        35.31732         2.88751
O         33.31249        41.67991        -1.93936
O         16.75019        30.24387        -1.83720
O         28.05047        48.78359        -3.19147
O         21.01410        47.84265        -2.13407
O         17.82062        16.60574         1.58370
O         33.15405        28.06019         3.12427
O         17.71116        36.02044        -1.71136
O         19.00953        31.57967        -2.00459
O         25.41251        48.89595        -2.87034
O         22.69287        44.86386         2.50285
O         32.00486        21.55575         2.06605
O         24.06738        57.20476        -1.64354
O         29.16405        42.64005         2.35502
O         22.24384        39.15507        -0.64335
O         39.20791        33.91132         0.77079
O         19.31326        43.29451         2.51425
O         24.71283        12.65879         1.75629
H         24.46782        11.80525         2.18655
O         12.41421        35.99880        -1.66683
H         12.52658        35.19476        -2.22673
O         29.32823        14.15371        -2.08490
H         30.05830        13.71129        -2.56567
O         40.45248        28.90072         0.50438
H         40.79843        29.28007         1.34638
O         29.08258        26.93305         3.14514
H         28.51868        26.18185         3.45387
O         20.84853        11.64190         1.98176
H         21.67683        11.15812         2.22029
O         26.33232        32.07295        -1.37071
H         25.57159        32.22457        -1.97409
O         24.52662        27.25264         1.51051
H         23.82959        26.72172         1.95052
O         18.01857        24.56808         1.27285
H         18.82089        24.19692         1.69737
O         26.21972        30.93022         2.10092
H         26.80076        30.40292         2.68900
O         29.64981        22.76081        -1.26737
H         28.87870        22.34764        -1.73303
O         21.84832        30.14098        -2.21845
H         21.78928        29.33199        -2.76873
O         23.34381        10.15139         1.88902
H         23.45585         9.20022         2.10677
O         23.27757        20.23073        -2.46143
H         23.67159        21.07507        -2.78639
O         20.43093        59.36673        -0.69074
H         21.04291        59.25233        -1.44728
O         28.59218        14.38804         1.49138
H         27.82759        14.73887         1.99364
O         26.16166        26.78053        -1.70301
H         27.00133        27.10766        -2.08555
O         23.14480        32.39345        -1.65458
H         22.72340        31.68302        -2.20179
O         11.78668        40.19686         2.32119
H         12.49076        39.73185         2.82854
O         25.73755        42.01443         3.31301
H         26.41878        41.35487         3.57213
O         25.65403        20.16645         1.28869
H         25.58685        21.08186         1.71712
O         26.22643         7.35876         1.16401
H         25.62318         6.74240         1.62975
O         37.26985        31.15892         2.92413
H         36.64197        30.56850         3.39733
O         22.10454        16.43041        -2.09786
H         22.76098        17.03993        -2.49849
O         13.42782        16.05748        -0.19814
H         13.54132        16.17204        -1.16377
O         26.72072         8.12102        -2.38532
H         25.96128         8.70073        -2.60083
O         23.11743        16.39830         1.43208
H         23.81571        15.92642         1.93204
O         13.10819        35.43359         1.84571
H         12.74828        36.13225         2.44717
O         21.98605        30.63109         1.40404
H         22.08279        31.42393         1.97286
O         30.66762        36.10861         3.33358
H         31.40869        36.70365         3.58198
O         27.22080        21.30017        -1.88625
H         27.08486        20.41562        -2.31051
O         31.05331        31.80810        -0.28963
H         31.16348        30.87800        -0.61110
O         26.86190        54.06172         0.97863
H         27.69558        54.27224         1.45227
O         32.19722        24.81647         3.10843
H         31.47313        25.16791         3.66824
O         31.19256        46.30985         1.04180
H         30.86448        47.21731         1.24185
O         15.58523        37.86349        -1.83188
H         16.35504        37.41440        -2.25566
O         27.12221        34.52643        -0.60994
H         27.07272        33.74927        -1.22555
O         10.55495        36.96038         2.25709
H         10.60471        37.71276         2.88464
O         23.04997        41.47064         3.01090
H         23.92672        41.60422         3.44992
O         20.44811        45.94397         2.41958
H         20.42529        45.40697         3.24076
O         22.34425        25.24211        -2.16091
H         21.57073        25.57807        -2.66093
O         35.99258        38.30284         1.30497
H         35.62909        37.85206         2.10400
O         20.45821        45.08535        -1.09956
H         20.51541        45.67236        -1.88878
O         40.10566        31.04255         1.98073
H         39.39498        31.09199         2.66119
O         31.65507        30.98413         3.27958
H         31.57449        31.91491         3.60589
H          4.91231        31.29884         0.74935
H          4.89441        33.74321         0.82331
H          7.38871        27.02918         0.33885
H          6.15811        29.14817         0.39016
H          6.08427        35.93307         0.78488
H          7.31601        38.09369         0.73181
H          9.81268        22.68125         0.15845
H          8.58796        24.87336         0.23712
H          8.60537        40.12734        -0.05716
H          9.85403        42.21190        -0.46565
H         12.43591        18.33433         0.46286
H         11.01644        20.50281         0.15216
H         10.99504        44.40686        -0.34583
H         12.20440        46.56490        -0.46906
H         14.90382        14.08874         0.22602
H         14.24663        16.71181         1.56540
H         13.43418        48.71207        -0.72291
H         14.64547        50.85253        -0.59336
H         17.37502         9.83290        -0.20879
H         16.14850        11.96327         0.00251
H         16.10704        52.97970        -0.22665
H         17.43127        55.02561        -0.14997
H         19.81685         5.60093        -0.98777
H         18.59304         7.71724        -0.62307
H         18.76429        57.00699         0.25742
H         20.22090        58.75060         1.26115
H         23.17048         2.26440        -1.64582
H         21.02997         3.50796        -1.38653
H         23.72697        61.84995         2.27952
H         21.48988        60.87554         1.75528
H         25.35203         3.42394        -1.35319
H         26.62056         5.43188        -0.84580
H         26.91066        58.66789         0.75801
H         25.80663        60.64278         1.63573
H         27.90933         7.65134        -0.76633
H         29.13859         9.72079        -0.73498
H         29.19200        54.44414        -0.67260
H         28.02945        56.52959         0.19629
H         30.40308        11.83535        -0.73554
H         31.73575        14.09767        -0.29997
H         31.47065        50.33563        -2.53347
H         30.37302        52.43711        -1.66108
H         32.92208        16.21561         0.05356
H         34.13714        18.34813         0.04111
H         33.84946        46.07841        -1.72942
H         32.61282        48.05839        -2.39316
H         35.36109        20.52905         0.14250
H         36.55942        22.71994         0.22007
H         36.58628        42.08966        -1.01492
H         35.09651        44.24033        -0.70052
H         37.72955        24.84495         0.23260
H         38.92263        26.98331         0.26553
H         38.36049        37.34867        -1.95075
H         37.72111        39.51218        -1.79141
H         39.12013        29.61679        -0.90334
H         41.18217        30.96235        -0.67648
H         41.09582        33.04300        -1.82949
H         39.07172        35.09102        -2.36730
