         344
 CSIRO Nanostructure Databank - Neutral Graphene Oxide Data Set
C          1.29240         3.53793         1.05107
C          0.11244         4.22545         1.43286
C          1.44470         6.23821         2.10630
C          0.14495         5.51656         1.87944
C          1.38599         7.72622         1.79482
C          0.29428         8.37424         1.31321
C          1.36528        10.61520         1.30616
C          0.30922         9.79132         1.03623
C          1.26011        12.05496         0.99089
C          0.23869        12.61493         0.19254
C          1.21719        14.86816         0.31977
C          0.16818        14.00232        -0.01429
C          1.02656        16.37794         0.36063
C          0.16353        16.96844        -0.72503
C          1.28219        19.15237        -0.54390
C          0.21629        18.28340        -1.02586
C          1.25791        20.57894        -0.73098
C          0.09561        21.28845        -1.14065
C          1.21611        23.46164        -0.90595
C          0.07774        22.67478        -1.20509
C          1.20465        24.92646        -1.01141
C          0.03593        25.65693        -1.37906
C          1.20885        27.78882        -1.16749
C          0.03340        27.03958        -1.43223
C          1.23895        29.22155        -1.19754
C          3.70679         3.53532         0.57330
C          2.53781         4.20140         1.00658
C          3.79224         6.30014         1.16173
C          2.61570         5.59545         1.37464
C          3.89484         7.73971         1.52404
C          2.65116         8.48628         1.94177
C          3.92870        10.63227         1.56238
C          2.59916        10.02155         2.02258
C          4.07632        12.00823         1.71082
C          2.21647        12.98885         1.44223
C          3.68242        14.92849         0.91792
C          2.37952        14.29257         0.92174
C          3.67105        16.39539         0.75995
C          2.34710        17.13613         0.51311
C          3.60688        19.27027         0.25396
C          2.40574        18.53907         0.03773
C          3.59001        20.67064         0.03784
C          2.42420        21.34010        -0.41831
C          3.62313        23.51199        -0.34774
C          2.41721        22.78122        -0.53369
C          3.58752        24.99922        -0.16785
C          2.37298        25.66434        -0.74797
C          3.62416        27.80568        -0.64327
C          2.40220        27.08241        -0.84614
C          3.64074        29.22667        -0.71333
C          2.39935        29.91259        -0.95799
C          6.12686         3.53782         0.09265
C          4.93131         4.21836         0.44195
C          6.17907         6.35016         0.46410
C          4.97050         5.63876         0.67348
C          6.20615         7.79202         0.58950
C          5.06873         8.48948         1.02907
C          6.23014        10.63607         0.68735
C          5.05036         9.90867         1.06015
C          6.21955        12.08853         0.63628
C          5.06897        12.80225         1.07733
C          6.12163        14.93967         0.43976
C          4.93384        14.23429         0.86679
C          6.10579        16.37039         0.23304
C          4.90451        17.10650         0.41717
C          6.06622        19.23022         0.15007
C          4.86760        18.54415         0.35363
C          6.13695        20.66908         0.34082
C          4.79518        21.45250         0.30105
C          6.09241        23.51819        -0.28408
C          4.85272        22.86282        -0.10305
C          6.09859        24.91825        -0.86983
C          4.86648        25.69936        -0.51977
C          6.11325        27.81826        -0.50630
C          4.87162        27.08974        -0.54762
C          6.10628        29.24857        -0.46729
C          4.86056        29.92710        -0.58210
C          8.55500         3.52323        -0.31888
C          7.34240         4.22175        -0.04832
C          8.58047         6.36885        -0.12546
C          7.36727         5.65879         0.09751
C          8.61220         7.79602        -0.05359
C          7.40755         8.51349         0.29712
C          8.69568        10.69546         0.29659
C          7.40437         9.91991         0.37526
C          8.49406        12.02625        -0.41537
C          7.33982        12.80605         0.17017
C          8.54069        14.91390        -0.24596
C          7.32327        14.21804         0.13346
C          8.52275        16.35947        -0.34479
C          7.30578        17.04789        -0.15332
C          8.50733        19.24460        -0.24536
C          7.22475        18.52018        -0.48484
C          8.54697        20.63141        -0.17028
C          7.33985        21.41446        -0.03332
C          8.54433        23.47817        -0.82788
C          7.31123        22.78962        -0.27076
C          8.57980        24.96326        -0.49532
C          7.37821        25.67043        -0.56893
C          8.55192        27.83575        -0.31800
C          7.35186        27.11206        -0.44168
C          8.56851        29.26463        -0.24047
C          7.33607        29.94837        -0.32814
C         10.99779         3.48382        -0.63085
C          9.76712         4.19492        -0.49408
C         10.96505         6.34571        -0.70207
C          9.77921         5.65074        -0.45377
C         11.00593         7.76836        -0.67004
C          9.81107         8.49773        -0.34944
C         10.97738        10.64908        -0.68858
C          9.85246         9.93211        -0.31011
C         10.98515        12.08902        -0.66291
C          9.78848        12.79807        -0.47213
C         10.97178        14.93308        -0.98370
C          9.73558        14.21416        -0.49246
C         10.99561        16.39393        -0.64113
C          9.75555        17.05900        -0.54993
C         10.97209        19.12783         0.06866
C          9.76413        18.55787        -0.68526
C         11.01840        20.63543         0.03667
C          9.79785        21.31852        -0.20028
C         11.06990        23.48111        -0.10010
C          9.83121        22.74817        -0.49304
C         11.01732        24.95342         0.01045
C          9.80788        25.63810        -0.25067
C         10.97054        27.81633         0.30158
C          9.86579        27.12660        -0.46641
C         11.03497        29.29461         0.16548
C          9.82032        29.96218        -0.08472
C         13.45577         3.46077        -0.77154
C         12.21884         4.13681        -0.83487
C         13.45380         6.29232        -0.66636
C         12.18976         5.61013        -1.19278
C         13.45750         7.78907        -0.93113
C         12.22730         8.47140        -0.89731
C         13.49371        10.65246        -0.90778
C         12.19551         9.94351        -1.22694
C         13.49610        12.08686        -0.76011
C         12.25489        12.80371        -0.73876
C         13.47711        14.92689        -0.55538
C         12.26049        14.20575        -0.69325
C         13.47710        16.35902        -0.46739
C         12.23619        17.05896        -0.52803
C         13.49837        19.15225         0.16758
C         12.27658        18.56015        -0.48532
C         13.35077        20.48633         0.88166
C         12.18462        21.29817         0.37794
C         13.44358        23.46379         0.62754
C         12.11657        22.76469         0.73179
C         13.45202        24.84806         0.47325
C         12.22844        25.59535         0.28637
C         13.51260        27.75695         0.54766
C         12.23579        27.04236         0.54009
C         13.50495        29.19145         0.53723
C         12.27540        29.92029         0.38012
C         15.93421         3.46066        -0.77600
C         14.71186         4.11423        -0.88693
C         15.97962         6.30592        -0.68993
C         14.71967         5.59820        -1.21372
C         15.94894         7.74894        -1.16146
C         14.67351         8.49675        -1.03278
C         15.96819        10.67186        -0.92830
C         14.68500         9.92823        -0.97153
C         15.95945        12.09275        -0.50238
C         14.70985        12.80646        -0.61960
C         15.93697        14.94116        -0.28183
C         14.71621        14.22749        -0.47287
C         15.93995        16.34308        -0.14940
C         14.70275        17.05865        -0.25704
C         15.98754        19.23995        -0.01237
C         14.68416        18.47897         0.04045
C         15.95681        20.56247         0.72016
C         14.67404        21.25494         1.02529
C         15.93424        23.46301         0.68975
C         14.66711        22.78697         1.19512
C         15.91520        24.83335         0.42911
C         14.70095        25.57587         0.47595
C         15.96501        27.71140         0.44525
C         14.71100        27.01543         0.46435
C         15.97496        29.13980         0.58479
C         14.74658        29.85484         0.61567
C         18.44771         3.44108        -0.88725
C         17.19776         4.15463        -0.93116
C         18.52086         6.26577        -1.34472
C         17.22890         5.54292        -1.04889
C         18.47458         7.68608        -0.78656
C         17.25812         8.47275        -1.17230
C         18.48672        10.57860        -0.40773
C         17.28429         9.95774        -0.99760
C         18.30845        11.89842         0.29997
C         17.13469        12.72269        -0.18553
C         18.34457        14.86973         0.44594
C         17.25947        14.21076        -0.36193
C         18.37735        16.27326         0.48231
C         17.18453        17.04327         0.16977
C         18.41502        19.14255         0.63792
C         17.21482        18.43319         0.32024
C         18.43705        20.58502         0.72747
C         17.21765        21.33339         0.66647
C         18.41608        23.47005         0.70095
C         17.18630        22.74083         0.68278
C         18.44090        24.84212         0.38507
C         17.16362        25.52267        -0.07248
C         18.39580        27.68530         0.19296
C         17.18376        27.00544         0.24300
C         18.43269        29.09833         0.46824
C         17.22332        29.80197         0.64548
C         19.66411         4.11529        -0.79680
C         20.95360         6.25734        -0.72501
C         19.74298         5.51647        -0.88259
C         20.98874         7.62785        -0.61488
C         19.74833         8.41002        -0.45972
C         20.85941        10.65512         0.00925
C         19.70650         9.90269        -0.31922
C         20.78587        12.03855         0.29820
C         19.57783        12.68631         0.47206
C         20.71446        14.82612         1.20728
C         19.43238        14.05776         1.09692
C         20.75415        16.17920         1.11752
C         19.57889        16.96896         0.85053
C         20.80996        19.12560         1.14343
C         19.61698        18.40108         0.87299
C         20.82352        20.51350         1.18006
C         19.65469        21.26655         0.97228
C         20.90426        23.46792         0.70400
C         19.66329        22.77067         1.18889
C         20.88376        24.77832         0.33304
C         19.66017        25.52134         0.21737
C         20.90192        27.70654         0.04518
C         19.64158        26.95674        -0.27205
C         20.88925        29.03304         0.40323
C         19.68886        29.75606         0.56113
O         16.75514        10.62987        -2.20188
O          3.57688         7.97635         2.96918
O         10.92157        23.03262        -1.48204
O         15.43590        20.57489         2.10357
O          2.88718        17.03792         1.86202
O         11.26138        27.36742         1.64152
O         18.85422         7.80001         0.60003
O          5.46612        21.14835         1.54972
O         16.65431         8.01802        -2.42066
O          3.10203        12.66322         2.46940
O         15.98104         6.38297         0.77156
H         16.31600         5.53060         1.12313
O          9.06840        11.00905         1.67065
H          9.19525        10.16456         2.15130
O         10.25586        27.30379        -1.88055
H          9.53262        26.93999        -2.43458
O         10.80598        18.68845         1.42980
H         11.49365        19.14257         1.98244
O          8.12042        11.72170        -1.79269
H          8.03874        12.56974        -2.27723
O         18.99435        13.80017         2.52615
H         18.79271        14.67366         2.92727
O         10.85682        14.90528        -2.46296
H         10.93973        13.96697        -2.74053
O         13.37302         6.11020         0.76525
H         14.22770         6.42250         1.15322
O         17.91188        11.48399         1.67636
H         18.19073        12.21666         2.28581
O          2.41334        10.33111         3.42128
H          3.03688         9.76084         3.92291
O         12.39916        19.02330        -1.88627
H         13.24022        18.66419        -2.24233
O         18.66125         6.35126        -2.80007
H         17.82920         6.76571        -3.13874
O         12.15115         5.70282        -2.65180
H         11.33679         5.24951        -2.95635
O         14.79764         5.74696        -2.64367
H         13.90716         5.55025        -3.02190
O         17.13238        25.40458        -1.52895
H         17.96125        25.83393        -1.86411
O         11.67129        22.85577         2.12177
H         12.46503        22.71536         2.68866
O         12.96240        20.12603         2.25993
H         13.80008        19.87141         2.71829
O         19.66250        22.93495         2.66721
H         19.68161        23.89905         2.84865
O         16.11568        19.61814        -1.42721
H         16.42001        18.82780        -1.92181
O          8.41456        23.40274        -2.28757
H          9.33372        23.42398        -2.64565
O          9.80935        18.83952        -2.11945
H         10.75424        18.77012        -2.41401
O          0.28992        16.60282         1.60109
H          0.95804        16.60001         2.32505
O          6.99108        18.59694        -1.95108
H          7.88356        18.58278        -2.37738
O         12.07059        10.02096        -2.70182
H         12.83903         9.54192        -3.08128
O         17.69843        14.36776        -1.78180
H         17.09476        13.82358        -2.33322
O          6.03237        24.75983        -2.33358
H          6.83457        24.23661        -2.59442
O          1.72073         6.10438         3.53540
H          2.52806         6.64882         3.71312
O         19.53277        26.87373        -1.75931
H         19.52358        27.79452        -2.09903
O         14.60399        23.01674         2.64634
H         15.20841        22.35157         3.05185
O          3.45393        25.18993         1.30547
H          2.61682        24.75648         1.57854
H          1.23257         2.48479         0.74210
H         -0.84935         3.69503         1.37027
H         -0.78071         5.99541         2.22974
H         -0.63999         7.82782         1.12076
H         -0.61125        10.21040         0.60572
H         -0.57017        11.98701        -0.20516
H         -0.73218        14.40922        -0.49542
H         -0.63072        16.34427        -1.15936
H         -0.51342        18.70362        -1.73384
H         -0.82344        20.73516        -1.37881
H         -0.85753        23.16623        -1.50682
H         -0.89564        25.11996        -1.60472
H         -0.89380        27.57225        -1.68961
H          0.30835        29.76540        -1.41710
H          3.65942         2.46052         0.34343
H          2.40281        31.01211        -0.99005
H          6.09935         2.44708        -0.04771
H          4.85177        31.02740        -0.60198
H          8.53275         2.42427        -0.36864
H          7.32219        31.04750        -0.28233
H         10.98796         2.39227        -0.48529
H          9.80900        31.06254        -0.11244
H         13.44689         2.37854        -0.56196
H         12.33225        31.01906         0.34025
H         15.95614         2.37350        -0.60144
H         14.77241        30.95437         0.65001
H         18.42788         2.34422        -0.81130
H         17.25297        30.88860         0.81372
H         20.58288         3.53906        -0.60752
H         21.90246         5.69859        -0.69394
H         21.95806         8.14352        -0.55608
H         21.84088        10.16294         0.04696
H         21.73188        12.57045         0.47382
H         21.62799        14.28301         1.48730
H         21.71672        16.68602         1.27266
H         21.74895        18.59055         1.33643
H         21.76819        21.02403         1.41366
H         21.86598        22.93671         0.74403
H         21.82989        25.25980         0.04819
H         21.86787        27.20876        -0.11543
H         21.84481        29.55602         0.55769
H         19.72056        30.82845         0.79749
