         410
 CSIRO Nanostructure Databank - Neutral Graphene Oxide Data Set
C         28.68873        27.33331         2.25794
C         28.70822        28.76377         2.41532
C         27.70200        29.48597         3.00652
C         28.76861        31.64224         2.56085
C         27.82451        30.91570         3.21962
C         29.24935        33.03511         2.90964
C         28.29769        33.86355         3.72573
C         28.93016        35.99806         2.66124
C         28.24461        35.21436         3.66846
C         28.93480        37.40299         2.64375
C         28.37645        38.17994         3.74560
C         28.82709        40.34294         2.64810
C         28.39546        39.53468         3.80661
C         29.04337        41.83621         2.75301
C         28.02176        42.65133         3.44648
C         28.60504        44.65457         2.12550
C         27.84580        43.96100         3.15505
C         28.25697        45.96918         1.74768
C         30.81761        27.34088         0.99586
C         29.70315        26.66419         1.63069
C         30.85738        28.75525         1.03918
C         29.97001        29.49470         2.01442
C         30.59184        31.65295         0.73186
C         29.63743        30.90591         1.59237
C         30.56710        33.14345         0.76843
C         29.80860        33.78707         1.70432
C         30.51399        36.03731         0.62033
C         29.57564        35.24416         1.57959
C         30.60275        37.48100         0.80520
C         29.70544        38.12145         1.65704
C         30.45049        40.31409         0.59249
C         29.55276        39.58844         1.56300
C         30.45734        41.80260         0.54698
C         29.85732        42.54582         1.69995
C         30.38880        44.62178         0.40664
C         29.63418        43.97991         1.43291
C         29.89079        45.87003        -0.02532
C         28.85793        46.54871         0.63225
C         32.92000        24.52778        -0.40936
C         31.88197        25.19133         0.20404
C         32.94135        27.34324        -0.25843
C         31.84974        26.61850         0.30577
C         32.92026        28.77126        -0.26799
C         31.84450        29.48261         0.33882
C         32.78844        31.64467        -0.38279
C         31.79573        30.93898         0.24118
C         32.70634        33.10341        -0.65660
C         31.45963        33.87689        -0.16521
C         32.74735        36.00538        -0.48918
C         31.62012        35.32870        -0.02417
C         32.78906        37.46793        -0.40243
C         31.67218        38.18254         0.13024
C         32.82819        40.30850        -0.20343
C         31.65719        39.59634         0.10370
C         32.86464        41.78885        -0.05359
C         31.55260        42.50161        -0.27565
C         32.74610        44.70352        -0.61907
C         31.60030        44.01378        -0.13569
C         32.76516        46.13150        -0.97250
C         31.60266        46.89365        -1.22964
C         32.84731        48.90943        -1.68317
C         31.63677        48.24968        -1.58402
C         35.29257        23.13635        -1.73662
C         35.13915        24.57854        -1.61274
C         34.04284        25.22601        -0.95245
C         35.21940        27.40101        -1.19337
C         34.05586        26.65281        -0.83501
C         35.20479        28.82957        -1.16093
C         34.01932        29.48827        -0.82597
C         35.19354        31.71925        -1.24988
C         33.92521        30.93983        -0.98238
C         35.25484        33.13308        -0.71229
C         33.94233        33.87507        -0.85400
C         35.14695        35.97928        -1.34879
C         33.92591        35.25328        -0.89290
C         35.11000        37.47689        -1.35576
C         33.93707        38.19919        -0.78504
C         35.17305        40.37396        -0.97498
C         33.99103        39.60750        -0.60055
C         35.22763        41.78227        -0.93672
C         34.09112        42.55647        -0.41759
C         35.21869        44.65196        -1.05822
C         33.99961        43.99760        -0.75209
C         35.25036        46.07358        -1.20299
C         34.01596        46.80321        -1.19738
C         35.32011        48.88449        -1.60638
C         34.05108        48.20084        -1.49635
C         35.37692        50.28419        -1.80411
C         37.81434        22.96601        -1.65475
C         36.47069        22.42935        -1.79133
C         38.02307        24.34934        -2.00789
C         36.17001        25.40969        -2.10042
C         37.66016        27.44777        -1.83495
C         36.35479        26.74962        -1.73410
C         37.67865        28.86766        -1.43897
C         36.44207        29.55992        -1.35052
C         37.66809        31.66865        -1.15291
C         36.44921        30.96504        -1.26361
C         37.66597        33.12041        -1.27810
C         36.49111        33.84536        -1.21453
C         37.65101        35.97060        -1.59471
C         36.47161        35.27694        -1.39611
C         37.70166        37.44880        -1.54659
C         36.41454        38.22026        -1.38358
C         37.20928        40.44481        -2.24469
C         36.25688        39.68953        -1.58173
C         37.46063        41.81002        -1.98376
C         36.38128        42.49429        -1.36574
C         37.71053        44.54368        -1.47241
C         36.44759        43.91716        -1.27955
C         37.73448        45.99071        -1.36660
C         36.50263        46.72878        -1.36196
C         37.78086        48.85508        -1.50453
C         36.53593        48.15736        -1.49016
C         37.80146        50.27532        -1.60865
C         36.57974        50.96017        -1.80036
C         40.16504        20.17714        -0.79009
C         38.98368        20.81995        -1.06631
C         40.11561        23.00627        -0.73610
C         38.92346        22.24463        -1.17887
C         40.09964        24.51924        -0.78938
C         38.99308        25.18290        -1.49824
C         40.15419        27.39956        -1.07032
C         39.01906        26.65480        -1.68553
C         40.09312        28.77470        -0.86580
C         38.89107        29.54694        -1.13736
C         40.01779        31.80571        -0.46505
C         38.87332        30.96454        -0.99574
C         40.20213        33.13118        -1.16771
C         38.95193        33.77097        -1.60312
C         40.24687        35.98778        -1.54292
C         38.95277        35.28722        -1.75403
C         40.27584        37.39665        -1.68986
C         39.01139        38.06028        -1.90863
C         40.17990        40.22206        -2.40556
C         39.07417        39.32575        -2.42855
C         39.89555        41.58029        -2.62744
C         38.75308        42.41186        -2.21129
C         40.21716        44.42345        -1.43788
C         38.90480        43.77640        -1.80538
C         40.19322        45.94846        -1.06831
C         38.95612        46.70199        -1.30429
C         40.23943        48.83046        -1.19963
C         39.00128        48.12051        -1.35402
C         40.24161        50.27034        -1.22031
C         39.04624        50.99202        -1.45979
C         40.24009        53.11167        -1.23281
C         39.08080        52.41711        -1.48688
C         42.64682        20.20638        -0.57869
C         41.41032        20.88978        -0.66021
C         42.63535        23.01684        -0.65827
C         41.41838        22.30608        -0.66888
C         42.63848        24.48395        -0.86453
C         41.37816        25.25765        -0.78496
C         42.61163        27.33265        -0.39099
C         41.36474        26.62954        -0.79243
C         42.55729        28.80002        -0.13715
C         41.25489        29.51400        -0.29687
C         42.59815        31.71160        -0.46080
C         41.29701        31.01268        -0.26831
C         42.60668        33.07552        -0.70859
C         41.39847        33.81921        -1.07208
C         42.66838        36.00815        -1.32232
C         41.45274        35.26820        -1.35228
C         42.71597        37.40682        -1.61344
C         41.50099        38.10834        -1.86136
C         42.85757        40.31357        -2.13823
C         41.52116        39.54419        -2.31153
C         42.89804        41.78469        -1.89858
C         41.83473        42.62605        -2.22833
C         42.73466        44.55870        -1.14202
C         41.58670        43.87586        -1.61192
C         42.67279        45.97840        -0.96405
C         41.46698        46.68810        -1.02718
C         42.69277        48.84837        -0.81889
C         41.45539        48.12088        -1.02179
C         42.67478        50.29814        -0.75263
C         41.45704        50.99158        -0.97855
C         42.64180        53.12231        -0.64346
C         41.44717        52.41778        -0.95190
C         43.83927        20.90566        -0.53213
C         45.13772        23.05081        -0.49098
C         43.87536        22.32397        -0.58808
C         45.17089        24.46836        -0.44741
C         43.95277        25.22278        -0.79395
C         45.08007        27.34713        -0.20458
C         43.93090        26.67440        -0.51960
C         45.03469        28.79017         0.26754
C         43.81408        29.57353        -0.16977
C         45.13329        31.58757        -0.77337
C         43.82637        30.93113        -0.37251
C         45.15599        33.08662        -0.58487
C         43.87884        33.82297        -0.57702
C         45.22740        35.91940        -1.17448
C         43.89977        35.30535        -0.87841
C         45.26454        37.40366        -1.41125
C         43.97801        38.15977        -1.53431
C         45.33847        40.28873        -1.63137
C         44.01959        39.53021        -1.63881
C         45.24053        41.70439        -1.07544
C         44.02939        42.41098        -1.25797
C         45.18439        44.51359        -0.71423
C         43.98584        43.83644        -1.04116
C         45.22671        45.98360        -0.82418
C         43.93037        46.73252        -0.98074
C         45.21605        48.91140        -0.75067
C         43.89843        48.17287        -0.72545
C         45.08938        50.31012        -0.20488
C         43.85946        51.01942        -0.44394
C         43.80665        52.44132        -0.37334
C         47.55388        23.04341        -0.14713
C         46.37689        22.36399        -0.36148
C         47.57942        24.45840         0.04015
C         46.34774        25.18069        -0.12347
C         47.48284        27.33151         0.35014
C         46.33449        26.63062        -0.02039
C         47.52831        28.77665         0.29741
C         46.33628        29.50541         0.04373
C         47.59019        31.56571        -0.19605
C         46.35983        30.87993        -0.22415
C         47.62651        32.99670        -0.55838
C         46.36323        33.77462        -0.59459
C         47.65832        35.91970        -0.55130
C         46.44075        35.20120        -0.72011
C         47.69086        37.36567        -0.64312
C         46.51270        38.12768        -1.05098
C         47.73034        40.27355        -0.81774
C         46.49485        39.50389        -1.05297
C         47.65406        41.69944        -0.45351
C         46.40858        42.38671        -0.63351
C         47.59290        44.53283        -0.12838
C         46.38420        43.81129        -0.45713
C         47.56939        45.95444        -0.03678
C         46.40435        46.71374        -0.30912
C         47.48681        48.82297         0.37586
C         46.37344        48.11530        -0.17748
C         47.36226        50.19953         0.66840
C         46.17861        50.90466         0.42263
C         50.03728        24.50177         0.39476
C         48.77091        25.15401         0.37374
C         49.95093        27.32461         1.01381
C         48.63055        26.55073         0.94872
C         49.98302        28.76968         0.71091
C         48.76172        29.48216         0.41004
C         49.99338        31.64467         0.41053
C         48.78162        30.89222         0.17733
C         50.05732        33.02441         0.24893
C         48.91376        33.75843        -0.32758
C         50.03723        35.91572         0.15483
C         48.85853        35.22634        -0.21131
C         50.03600        37.34269         0.16311
C         48.87537        38.03810        -0.28814
C         50.05469        40.22132         0.26640
C         48.97883        39.50113        -0.43627
C         49.99088        41.62815         0.41236
C         48.79782        42.36434         0.03353
C         49.94759        44.45138         0.68466
C         48.78611        43.79642         0.18578
C         50.05562        45.91550         0.62919
C         48.80272        46.70939         0.22149
C         49.85757        48.72916         1.15132
C         48.71967        48.11932         0.62378
C         51.21748        25.13317         0.67617
C         52.51510        27.34603         0.72088
C         51.27360        26.57773         0.96535
C         52.47188        28.75537         0.82225
C         51.19887        29.43896         0.80614
C         52.47574        31.65853         1.03595
C         51.16581        30.91042         0.91662
C         52.47260        33.09894         0.76199
C         51.26328        33.77069         0.51640
C         52.43877        35.91985         0.75159
C         51.25164        35.20408         0.45568
C         52.40587        37.34860         0.85757
C         51.21232        38.05326         0.56522
C         52.31124        40.17307         1.23596
C         51.18430        39.48823         0.69682
C         52.25357        41.58135         1.41896
C         51.09187        42.30572         1.02235
C         52.16428        44.41955         1.79296
C         51.05929        43.73096         1.17429
C         52.14484        45.83159         1.98527
C         51.07881        46.61264         1.41722
C         50.99580        48.00052         1.53928
C         54.93211        27.39222         0.42962
C         53.74774        26.68609         0.49740
C         54.93943        28.80227         0.58586
C         53.70722        29.49759         0.77382
C         54.94948        31.63137         0.82958
C         53.73837        30.91529         0.88519
C         54.93861        33.08470         0.96585
C         53.70507        33.79974         0.86895
C         54.87461        35.92966         1.24598
C         53.67681        35.22324         0.94590
C         54.80718        37.35718         1.49024
C         53.58281        38.05160         1.28793
C         54.64323        40.14239         2.06577
C         53.51441        39.45576         1.53829
C         54.54471        41.55242         2.37003
C         53.36967        42.26435         2.01214
C         54.37588        44.33513         2.89301
C         53.29674        43.67275         2.23988
C         54.29571        45.73395         3.13462
C         53.21289        46.45600         2.69230
C         56.15700        29.53739         0.53190
C         56.16408        30.90780         0.65424
C         56.11657        33.82390         1.17641
C         56.08127        35.20468         1.34035
C         55.92862        38.07475         1.96616
C         55.84452        39.42163         2.26496
C         55.60488        42.24357         3.01974
C         55.51708        43.59044         3.29164
O         42.45458        27.85647         1.00533
O         48.77816        39.97772        -1.81207
O         38.53883        27.15509        -2.95905
O         51.67236        31.34175         2.23386
O         49.88166        46.43598        -0.73036
O         43.81297        34.84343         0.51020
O         33.72472        42.27162         1.01026
O         34.84833        36.73854        -2.58871
O         38.99993        34.39445        -2.92356
O         44.79855        46.42096        -2.17867
O         37.98771        39.77712        -3.17769
O         41.09792        30.25115         0.98087
O         30.44271        42.20856         3.00925
O         45.38782        36.45282        -2.53648
O         39.81082        23.83258         0.47593
O         31.58586        33.41543        -1.53579
O         40.08594        44.91427        -0.05022
O         42.40907        39.82137        -3.43852
O         40.92642        42.29616        -3.23085
O         37.11941        24.84422        -2.95851
O         43.38415        24.85125        -2.10262
O         34.27604        31.45374        -2.32908
O         50.66503        26.98905         2.25513
O         30.31359        46.35325        -1.26525
O         29.32344        31.08823         0.18661
O         29.17294        35.60866         0.22789
O         37.23991        37.93890        -0.19270
O         48.52923        33.28150        -1.67928
O         29.58330        41.06020        -0.35522
O         28.14131        39.97020         1.41204
O         45.19318        31.38030        -2.23296
H         46.00795        31.81814        -2.56300
O         35.43235        32.95660         0.73659
H         35.79152        33.78889         1.11046
O         30.77208        29.66464         3.23965
H         30.95748        28.77142         3.60059
O         48.20845        26.31951         2.33427
H         49.03749        26.29001         2.87006
O         39.56934        32.23945         0.86314
H         39.84130        31.52553         1.48913
O         45.52955        49.07247        -2.18534
H         45.46107        48.16590        -2.57918
O         45.67473        40.48513        -3.04178
H         45.76500        39.60220        -3.45983
O         31.27363        42.30326        -1.68880
H         30.43309        41.78214        -1.74609
O         30.41642        32.77997         3.78092
H         30.60475        31.81256         3.77917
O         44.90883        28.72138         1.72544
H         44.02323        28.31950         1.91086
H         27.82781        26.77379         2.65369
H         26.80918        28.97132         3.39195
H         27.13876        31.39110         3.93653
H         27.71741        33.34334         4.50203
H         27.59058        35.74013         4.37907
H         27.99234        37.63065         4.61653
H         28.05525        40.04876         4.71750
H         27.35952        42.15343         4.17005
H         27.05832        44.53145         3.67005
H         27.45299        46.49486         2.28144
H         29.64012        25.56993         1.55593
H         28.51569        47.51872         0.24921
H         32.88712        23.43128        -0.47725
H         31.05136        24.59952         0.61280
H         32.84919        49.97397        -1.94478
H         30.69177        48.77104        -1.78187
H         34.36938        22.53727        -1.68178
H         34.45740        50.86823        -1.93217
H         36.37827        21.33183        -1.77295
H         36.56516        52.04992        -1.92636
H         40.18900        19.07885        -0.73990
H         38.07652        20.22809        -1.25312
H         40.24094        54.21099        -1.23645
H         38.16461        52.98466        -1.69370
H         42.65433        19.10711        -0.56526
H         42.62386        54.22141        -0.62340
H         44.77412        20.33414        -0.46727
H         44.72013        53.00912        -0.15136
H         48.48047        22.46196        -0.05572
H         46.41330        21.26952        -0.43666
H         48.19638        50.73646         1.13810
H         46.11769        51.94815         0.76250
H         50.08630        23.43567         0.13128
H         49.85533        49.80743         1.35958
H         52.14989        24.55394         0.64446
H         51.80525        48.55648         2.03081
H         55.88295        26.86380         0.27156
H         53.77367        25.59292         0.39828
H         55.12001        46.23510         3.66189
H         53.18688        47.53854         2.87273
H         57.10003        28.99136         0.38512
H         57.11932        31.44666         0.59707
H         57.08418        33.31046         1.25606
H         57.02501        35.72896         1.54078
H         56.88395        37.55898         2.12936
H         56.73891        39.93062         2.64694
H         56.50697        41.69941         3.32843
H         56.34041        44.10701         3.80543
