         671
 CSIRO Nanostructure Databank - Neutral Graphene Oxide Data Set
C          5.87595        31.61502         0.02102
C          5.84807        32.98024        -0.03705
C          8.36896        27.35729         0.78803
C          8.36647        28.76118         0.53617
C          7.16147        29.45607         0.22273
C          8.29820        31.59223         0.42672
C          7.11448        30.87495         0.20037
C          8.23686        33.03741         0.60300
C          7.03556        33.77642         0.17747
C          8.34439        35.87487        -0.01261
C          7.09435        35.14725         0.00205
C          8.38327        37.28364        -0.29853
C         10.79802        23.14802         1.26538
C         10.73349        24.49252         1.45649
C          9.41281        25.21590         1.46631
C         10.77810        27.38571         1.21965
C          9.52856        26.68660         1.13055
C         10.80115        28.78984         0.95963
C          9.59890        29.45913         0.64167
C         10.84310        31.65361         0.64123
C          9.61542        30.89670         0.21984
C         10.83649        33.03750         0.60753
C          9.56641        33.80225         0.65461
C         10.83654        35.80087        -0.10998
C          9.54597        35.18180         0.20690
C         10.85336        37.25740        -0.46386
C          9.57505        38.00668        -0.41548
C         10.79770        40.17814        -0.50618
C          9.60726        39.42896        -0.49188
C         10.81236        41.58741        -0.52955
C         13.15918        18.87297         0.37605
C         13.23758        20.31921         0.82711
C         12.05801        21.03576         0.91820
C         13.26416        23.07607         1.50339
C         12.05043        22.41696         1.25915
C         13.25731        24.50164         1.87888
C         11.94440        25.26056         1.81773
C         13.23012        27.39255         1.58938
C         11.99812        26.71256         1.54683
C         13.25782        28.82349         1.37027
C         12.05377        29.50868         1.04815
C         13.28094        31.64539         0.96742
C         12.06390        30.92897         0.85628
C         13.28429        33.07919         0.83169
C         12.06256        33.77641         0.65186
C         13.25144        35.91757         0.61478
C         12.07623        35.17271         0.40584
C         13.30625        37.35191         0.35642
C         12.15913        37.98979        -0.34688
C         13.30460        40.23988        -0.05275
C         12.11022        39.48329        -0.44657
C         13.27583        41.64544        -0.20200
C         12.01789        42.33319        -0.45976
C         13.23782        44.47708        -0.58002
C         12.03427        43.73690        -0.60994
C         13.27419        45.88434        -0.76261
C         15.70514        14.62123        -0.54837
C         15.65471        16.00067        -0.11727
C         14.48337        16.70430         0.01052
C         15.71106        18.78930         0.91656
C         14.42662        18.06342         0.60690
C         15.71725        20.27582         1.00955
C         14.48464        20.98777         1.04899
C         15.74863        23.07214         1.52569
C         14.50620        22.38692         1.35764
C         15.77648        24.49353         2.06351
C         14.50903        25.27417         1.78450
C         15.76282        27.38269         1.93768
C         14.47625        26.64831         1.76820
C         15.76424        28.90091         1.81620
C         14.47885        29.57112         1.46630
C         15.78453        31.70359         1.41112
C         14.48535        30.94619         1.24785
C         15.78406        33.10481         0.77149
C         14.47876        33.82483         0.94310
C         15.59533        35.96757         1.52009
C         14.44347        35.21873         0.97351
C         15.54847        37.46872         1.42306
C         14.41927        38.10417         0.68309
C         15.66195        40.24883         0.55269
C         14.48386        39.53386         0.37643
C         15.78283        41.62944        -0.03109
C         14.48040        42.38106        -0.14791
C         15.71068        44.50564        -0.40661
C         14.48805        43.77926        -0.37049
C         15.73646        45.90320        -0.60775
C         14.48103        46.59999        -0.77077
C         15.69585        48.73342        -0.93843
C         14.51387        48.02252        -0.94674
C         15.64111        50.23774        -1.10152
C         18.23046        10.55297        -1.81814
C         18.17306        11.93114        -1.50064
C         16.95155        12.57580        -1.19723
C         18.12793        14.78148        -1.12327
C         16.88430        13.95760        -0.88608
C         18.19344        16.00256        -0.23729
C         16.94189        16.66140         0.23008
C         18.14443        18.82207         0.54873
C         16.98142        18.11355         0.56159
C         18.18526        20.19716         1.11432
C         16.92212        20.96514         1.14642
C         18.24030        23.08645         1.46267
C         16.95560        22.38054         1.36168
C         18.24669        24.53842         1.57335
C         17.03869        25.24872         1.70155
C         18.25502        27.37809         1.56899
C         17.03416        26.65817         1.71093
C         18.24976        28.84351         1.44211
C         17.03868        29.55222         1.47333
C         18.26197        31.75705         0.66559
C         16.93972        30.88927         0.79681
C         18.16844        33.15703         1.28828
C         16.99958        33.83922         1.28151
C         18.14012        36.05003         1.65927
C         16.88422        35.22193         1.90502
C         18.08173        37.49186         2.13576
C         16.81070        38.25292         1.68811
C         18.15105        40.37889         1.09615
C         16.85104        39.66857         1.21360
C         18.13277        41.72706         0.83137
C         16.82900        42.48314         0.69397
C         18.24922        44.50304        -0.20068
C         16.96489        43.76367        -0.13267
C         18.28936        45.92697        -0.76675
C         16.96198        46.65366        -0.63810
C         18.20256        48.79704        -0.81404
C         16.95059        48.04602        -0.78280
C         18.22735        50.17674        -1.05774
C         16.98688        50.94109        -1.18357
C         18.27585        53.08905        -1.15830
C         16.99501        52.30014        -1.29311
C         18.30042        54.48354        -1.73423
C         20.74097         6.40165        -2.71616
C         20.69570         7.78320        -2.45947
C         19.49279         8.49164        -2.35184
C         20.67995        10.64323        -2.04240
C         19.44875         9.89258        -2.07892
C         20.67384        11.97782        -1.66375
C         19.42823        12.66734        -1.40007
C         20.67200        14.74085        -0.89078
C         19.43013        14.01602        -1.07911
C         20.69292        16.10143        -0.60078
C         19.41780        16.82954        -0.45615
C         20.69795        18.98389         0.12050
C         19.39214        18.25614        -0.02746
C         20.72062        20.37176         0.62850
C         19.46937        20.95707         1.18670
C         20.75113        23.07573         1.72759
C         19.43944        22.42075         1.35363
C         20.74015        24.55470         1.46135
C         19.48975        25.24863         1.50380
C         20.76030        27.42478         1.61143
C         19.46539        26.66713         1.48851
C         20.71391        28.77783         0.91613
C         19.45772        29.55376         1.19503
C         20.68404        31.65648         1.38872
C         19.50100        30.98534         1.13316
C         20.68524        33.10278         1.82914
C         19.47516        33.91543         1.32771
C         20.70944        36.00449         1.76142
C         19.40254        35.28557         2.04073
C         20.69422        37.48185         1.74799
C         19.40041        38.26558         1.83662
C         20.60100        40.34634         1.09446
C         19.39415        39.66900         1.31079
C         20.63924        41.77618         1.00423
C         19.36392        42.50572         0.99694
C         20.67931        44.62804         0.46802
C         19.38230        43.97768         0.61976
C         20.69412        46.04224         0.09960
C         19.46998        46.73312        -0.27833
C         20.64985        48.92257        -0.29792
C         19.43246        48.10237        -0.48116
C         20.73381        50.22725        -1.00589
C         19.48506        50.87443        -1.30648
C         20.49926        52.91906        -2.26384
C         19.43074        52.25094        -1.65026
C         20.70682        54.32002        -2.26465
C         19.48237        55.09990        -2.10932
C         20.77849        57.09227        -2.75328
C         19.56594        56.49508        -2.43843
C         20.83448        58.50801        -2.97348
C         23.21669         3.67177        -3.40757
C         22.00335         4.32715        -3.13634
C         23.21389         6.46890        -2.94326
C         21.96521         5.71171        -2.89378
C         23.21469         7.82177        -2.71597
C         21.99224         8.50478        -2.15518
C         23.22233        10.67034        -2.15852
C         21.93774         9.98053        -2.55883
C         23.17839        11.98737        -1.67055
C         21.91919        12.69538        -1.48319
C         23.16952        14.66981        -0.63580
C         21.91247        14.00811        -1.04303
C         23.19548        16.14138        -0.37886
C         21.95183        16.94427        -0.66899
C         23.22299        18.94698         0.25970
C         21.93545        18.13488         0.32178
C         23.23463        20.30134         0.61082
C         22.01379        21.02543         0.93451
C         23.24027        23.12236         1.17105
C         22.00600        22.37080         1.23072
C         23.21352        24.51278         1.16697
C         21.96953        25.24230         1.27757
C         23.22360        27.37944         1.10127
C         21.98680        26.65123         1.19210
C         23.17765        28.84187         1.11973
C         22.00182        29.52180         1.17973
C         23.04794        31.77930         0.66721
C         22.01761        30.98371         1.53977
C         23.13271        33.21145         1.15963
C         21.95510        33.86837         1.47787
C         23.16441        36.03214         1.36047
C         21.90322        35.31627         1.55701
C         23.17462        37.41536         1.20684
C         21.87799        38.12259         1.09489
C         23.16884        40.31593         0.55226
C         21.84963        39.58522         0.81706
C         23.12368        41.78139         0.92720
C         21.84517        42.48765         0.90136
C         23.14020        44.59935         0.46379
C         21.83289        43.92021         0.76224
C         23.14582        46.10946         0.70843
C         21.88311        46.73281         0.17213
C         23.22839        48.75356        -0.37426
C         21.93265        48.18210         0.03460
C         23.22010        50.22254        -0.53185
C         21.99409        50.84611        -1.08445
C         23.31520        52.87154        -1.80310
C         22.25144        51.96715        -1.92762
C         23.24690        54.21988        -2.25105
C         21.98997        54.91555        -2.46295
C         23.24992        56.99377        -2.91420
C         22.02899        56.33302        -2.72072
C         23.27086        58.38053        -3.48164
C         22.02290        59.17384        -3.23229
C         23.30733        61.25152        -3.45310
C         22.08332        60.58607        -3.34385
C         24.41859         4.36537        -3.45701
C         25.67780         6.46388        -3.16981
C         24.46452         5.77029        -3.23611
C         25.72678         7.86703        -2.93088
C         24.43660         8.64264        -3.06273
C         25.68856        10.57772        -2.05839
C         24.47019         9.98638        -2.36523
C         25.70791        11.95235        -1.47270
C         24.39006        12.67085        -1.40255
C         25.65936        14.73809        -0.91120
C         24.43961        14.00428        -0.96150
C         25.72450        16.03810        -0.14751
C         24.46839        16.87545        -0.29995
C         25.70667        18.95315         0.17151
C         24.46492        18.24190         0.02228
C         25.71353        20.31610         0.46753
C         24.47920        21.02348         0.67976
C         25.72610        23.11464         1.05369
C         24.49008        22.40730         0.96294
C         25.69157        24.55801         1.51258
C         24.49738        25.25881         0.86145
C         25.69316        27.46351         1.61158
C         24.44292        26.72938         1.16405
C         25.73423        28.90333         1.12472
C         24.44546        29.57042         0.86288
C         25.66163        31.80518         0.77302
C         24.39950        31.05488         0.61292
C         25.65375        33.17447         1.00132
C         24.39671        33.90219         1.14984
C         25.64704        36.03493         1.23730
C         24.40592        35.30080         1.29200
C         25.63833        37.42931         1.18069
C         24.40069        38.15690         1.11930
C         25.63295        40.28080         1.28767
C         24.40244        39.56751         1.04357
C         25.55156        41.75129         1.46106
C         24.30360        42.44964         1.08476
C         25.60891        44.45180         0.38812
C         24.35767        43.95658         1.13986
C         25.59401        45.94961         0.13355
C         24.43112        46.66569         0.09381
C         25.61029        48.57125        -1.11942
C         24.38997        48.03618        -0.39587
C         25.64950        50.10697        -1.22036
C         24.51693        50.94169        -0.67528
C         25.79485        52.97359        -1.58407
C         24.51611        52.44895        -0.97797
C         25.75554        54.31972        -2.02346
C         24.49037        54.96630        -2.28289
C         25.74613        57.03419        -2.80682
C         24.48885        56.32022        -2.68531
C         25.72567        58.44459        -3.06539
C         24.54335        59.14212        -3.26259
C         24.51616        60.55527        -3.37860
C         26.91457         8.53331        -2.70368
C         28.22836        10.51835        -2.18784
C         26.97326         9.92547        -2.30250
C         28.62472        11.86768        -1.69194
C         26.55144        12.94456        -2.29342
C         28.02358        14.91932        -1.60328
C         26.81263        14.21567        -1.53598
C         28.02504        16.29194        -1.12890
C         26.95948        16.83784        -0.45868
C         28.18133        19.05474        -0.28331
C         27.02563        18.19876         0.18911
C         28.13630        20.45312         0.03690
C         26.96423        21.05810         0.48009
C         28.17719        23.20589         0.89754
C         26.94361        22.47197         0.81638
C         28.20744        24.59026         1.08620
C         26.97711        25.32472         1.26950
C         28.20598        27.45962         1.25024
C         26.97253        26.70590         1.31265
C         28.16744        28.85958         1.15009
C         26.91874        29.57752         0.96503
C         28.17934        31.79608         0.84778
C         26.93141        31.03418         0.45385
C         28.15196        33.13721         1.09116
C         26.90839        33.90655         1.10836
C         28.13930        36.07325         1.25311
C         26.90500        35.30679         1.20623
C         28.17139        37.45296         1.22770
C         26.90330        38.19226         0.87722
C         28.12930        40.30451         1.62081
C         26.84829        39.61872         1.35274
C         28.15013        41.81729         1.64693
C         26.86196        42.56345         1.51987
C         28.16785        44.43276         0.36910
C         26.88861        43.91009         0.97773
C         28.11227        45.98031         0.39884
C         26.90169        46.50604        -0.41498
C         28.17569        48.54997        -1.20342
C         26.91318        48.05461        -0.47452
C         28.21903        49.98338        -1.80089
C         26.93273        50.78095        -1.58561
C         28.24607        52.92359        -1.74994
C         26.99435        52.26394        -1.54519
C         28.22285        54.30215        -2.04439
C         27.00026        54.99338        -2.24721
C         26.95812        56.36928        -2.61495
C         29.17026        12.85205        -2.48053
C         30.42707        14.98458        -2.11013
C         29.25066        14.27577        -2.05984
C         30.46387        16.44890        -1.93297
C         29.19570        17.13140        -1.45536
C         30.48602        19.31138        -1.30455
C         29.27093        18.49389        -0.90375
C         30.59728        20.57473        -0.49222
C         29.31508        21.34068        -0.30098
C         30.69827        23.20623         0.62193
C         29.44457        22.39769         0.79622
C         30.68843        24.61705         0.84201
C         29.46202        25.31510         1.06429
C         30.70686        27.42305         1.19299
C         29.46610        26.73168         1.20276
C         30.72398        28.88253         1.37941
C         29.41269        29.63396         1.29512
C         30.72492        31.76717         1.10258
C         29.47480        31.03183         0.69325
C         30.71330        33.18904         1.16440
C         29.40220        33.87320         1.53857
C         30.69377        36.04114         1.36159
C         29.40181        35.30377         0.95668
C         30.68337        37.53686         1.19501
C         29.42142        38.21429         1.24043
C         30.63780        40.37331         1.41276
C         29.41391        39.61102         1.37506
C         30.63225        41.78035         1.44386
C         29.41613        42.53456         1.36764
C         30.56959        44.79543         1.28598
C         29.39278        43.88062         1.05305
C         30.60628        46.02909         0.38603
C         29.43648        46.61408        -0.00007
C         30.70396        48.68167        -0.77554
C         29.45459        47.87892        -0.79580
C         30.64547        50.07043        -1.06725
C         29.46070        50.77090        -1.39229
C         29.45162        52.16264        -1.55293
C         31.72907        17.15896        -1.65134
C         33.00027        19.14080        -0.95853
C         31.75744        18.47881        -1.30116
C         33.04011        20.40552        -0.44196
C         31.80467        21.13345        -0.16988
C         33.12229        23.22323         0.26704
C         31.86584        22.52300         0.30144
C         33.13832        24.63560         0.46634
C         31.91848        25.33095         0.73845
C         33.16901        27.45767         0.81467
C         31.92116        26.74266         0.92938
C         33.16455        28.89699         0.98155
C         31.99164        29.60822         1.15310
C         33.16619        31.77947         1.01205
C         31.96879        31.06178         1.12557
C         33.14553        33.19835         0.54471
C         31.88584        33.90584         0.95615
C         33.17809        36.08825         1.07972
C         31.89588        35.38709         0.69231
C         33.15017        37.45347         1.32066
C         31.90409        38.20907         1.29719
C         33.11718        40.36639         1.42742
C         31.92233        39.66560         1.36904
C         33.14778        41.86660         1.66042
C         31.89683        42.52059         1.07275
C         33.16885        44.71312         0.98183
C         31.88798        44.02138         1.35128
C         33.09109        46.09016         0.47040
C         31.89330        46.70321         0.15065
C         31.87335        48.05100        -0.35413
C         34.36000        21.02150        -0.03870
C         35.53740        23.24431        -0.00537
C         34.33343        22.53194         0.03168
C         35.57962        24.63480         0.16076
C         34.37436        25.35188         0.38037
C         35.59662        27.54106         0.21565
C         34.35699        26.78214         0.51751
C         35.68357        28.94683         0.60364
C         34.46046        29.58278         1.09441
C         35.69228        31.82207         0.81511
C         34.44985        31.11417         1.14822
C         35.67953        33.23472         0.79922
C         34.42181        33.96479         0.83764
C         35.68468        36.11255         0.75054
C         34.40283        35.34267         0.97090
C         35.68928        37.51300         1.28266
C         34.42525        38.15593         1.60169
C         35.66026        40.39796         1.28181
C         34.40814        39.68775         1.63492
C         35.59356        41.77916         0.98491
C         34.39833        42.53628         1.09674
C         34.35154        43.87129         0.72848
C         36.94918        25.28675         0.20258
C         38.14914        27.55585         0.28467
C         36.92603        26.79555         0.04376
C         38.14097        28.94146         0.38317
C         36.88298        29.65284         0.54921
C         38.13829        31.79823         0.70440
C         36.90455        31.09476         0.71836
C         38.14554        33.21131         0.86502
C         36.92355        33.90889         0.89522
C         38.22032        36.10904         1.26427
C         36.90823        35.34969         1.19194
C         38.14160        37.56138         1.08710
C         36.91250        38.24354         1.24859
C         36.85987        39.68179         1.21723
C         39.36723        29.69192         0.44499
C         40.61433        31.82787         0.59705
C         39.38024        31.07001         0.58238
C         40.62472        33.18194         0.73436
C         39.40388        33.94886         0.89641
C         39.43616        35.32290         1.02065
O         14.92999        18.13130         1.98002
O         17.79133        15.83304         1.13654
O         29.56053        17.13543        -2.89740
O         18.97085        20.23824         2.38013
O         10.92206        36.24451        -1.52246
O         36.15456        27.24108        -1.11896
O         19.21497        17.89471        -1.46203
O         20.30668        38.14745         2.99709
O         34.45783        38.91274         2.87366
O         15.77700        28.23270         3.12755
O         23.97971        50.73310         0.66282
O         21.19425        48.94399         1.06017
O         16.54079        39.33810         2.64161
O         21.59317        38.60000        -0.27087
O         17.87368        43.55762        -1.26948
O         18.45921        32.00841        -0.71999
O         19.11086        43.58537         2.00987
O         26.58521        12.88932        -3.51173
O         26.03649        42.30661         2.73502
O         15.10946        36.79141         2.64991
O          8.80666        33.51942         1.87879
O         12.50730        24.83473         3.10458
O         34.60208        30.29760         2.36484
O         30.04141        29.41400         2.59009
O         32.71179        44.50872         2.42675
O         37.44688        35.67558         2.48820
O         21.38992        52.13942        -3.02507
O         20.73442        20.08510        -0.83480
O         24.43243        30.12779        -0.54793
O         28.20557        41.05676         2.89086
O         23.20929        58.17468        -5.03926
O         28.83421        47.63611        -2.12827
O         12.47099        38.64116        -1.62563
O         25.89116        50.47204        -2.61185
O         23.05979        15.20230         0.78093
O         18.48449        53.27146         0.29352
H         18.56383        52.37772         0.69149
O         20.69168        32.93550         3.28195
H         20.26449        33.72681         3.70539
O         37.79664        24.72680        -0.81093
H         37.47888        25.06151        -1.67560
O         29.66188        30.81072        -0.75095
H         28.76293        30.81162        -1.17013
O         26.96926        30.91345        -1.01435
H         26.10310        30.50515        -1.27283
O         24.43029        53.16087         0.28661
H         24.07377        52.51988         0.94992
O         23.11067        46.50628         2.09092
H         23.74904        45.94989         2.59922
O         15.81313        24.33339         3.51914
H         15.66726        25.21415         3.92607
O         25.57832        27.53819         3.07338
H         26.40790        27.93333         3.41642
O         16.03140        31.82238         2.83256
H         16.19605        32.76371         3.07189
O         29.58340        21.65637         2.04739
H         29.73467        22.30213         2.76849
O         20.66069        28.52781        -0.52171
H         20.52510        29.38757        -0.97631
O         21.84050        10.01418        -4.02224
H         21.74452        10.95108        -4.29568
O         30.24078        19.74587        -2.68869
H         30.00584        18.91855        -3.18585
O         35.81039        36.21405        -0.71655
H         34.94684        36.51166        -1.07425
O         29.02418        22.00057        -1.55843
H         29.27567        21.37011        -2.27754
O         29.30736        35.14053        -0.48458
H         30.16069        35.41433        -0.90626
O         22.05334        17.46095        -2.01187
H         21.20175        17.91695        -2.21429
O         31.85988        35.57271        -0.76707
H         32.38103        34.81466        -1.14960
O         27.00474        45.99238        -1.76653
H         26.43156        46.57469        -2.33846
O         16.74293        34.91602         3.32857
H         16.56355        35.77771         3.77607
O         24.71562        25.15885        -0.58332
H         23.95941        25.58780        -1.03676
O         16.29312        41.42811        -1.38703
H         15.60323        40.96151        -1.90476
O         23.33855        40.36519        -0.89969
H         22.93577        39.53551        -1.25320
O         27.86769        46.34196         1.78569
H         28.66318        46.07455         2.31736
O         25.43828        24.55097         2.94126
H         26.19250        24.11377         3.38727
O         31.98703        42.43239        -0.37994
H         31.87671        41.49349        -0.64074
O         23.24906        44.48843        -0.97907
H         23.38516        43.54395        -1.21050
O         16.59128        30.43668        -0.52941
H         17.28089        30.87555        -1.12074
O         19.75197        34.21372        -0.05916
H         19.40562        33.43419        -0.59296
O         27.30324        17.93637         1.60771
H         26.74301        17.16233         1.86721
O         25.76550        15.67401         1.28903
H         24.86848        15.30580         1.49412
O         26.16388        11.86612        -0.08756
H         25.39903        11.57159         0.45050
O         28.34040        43.94055        -0.99961
H         28.30126        44.70664        -1.62072
O         22.52896        31.85107        -0.67297
H         22.97985        31.15142        -1.20070
O         25.51899        48.03958        -2.46494
H         25.80015        48.77333        -3.07461
O         33.11390        42.02404         3.09420
H         33.86280        41.52058         3.47694
O         35.42023        20.56329        -0.88158
H         35.23781        20.86377        -1.79521
O         14.84175        50.57272        -2.24802
H         15.28473        50.21287        -3.04359
O          8.45766        24.57175         0.61787
H          8.77233        24.63655        -0.30666
O         12.83591        18.84150        -1.02851
H         13.46652        19.41616        -1.50874
O         26.95690        38.29015        -0.60189
H         27.03028        37.37511        -0.95086
O          9.74021        30.85829        -1.27027
H          9.02822        30.26964        -1.60324
O         18.51474        45.81647        -2.20498
H         18.14706        44.94014        -2.47655
O         16.34462        42.80542         2.00784
H         17.10831        43.15403         2.52328
O         30.93278        35.86060         2.79367
H         30.43452        36.55100         3.28033
O         18.01361        15.30253        -2.48609
H         17.97565        14.53709        -3.09713
O         24.40341        57.49395        -5.43873
H         24.15355        56.53840        -5.39535
O         22.50362        31.05338         2.90137
H         21.91573        31.66879         3.40926
O         26.94791        48.64088         0.83825
H         27.25857        47.95916         1.48928
O         20.92741        27.71398         3.03201
H         21.05638        26.86517         3.50604
O         33.09940        33.15572        -0.96677
H         32.38845        32.51908        -1.20591
O         20.80985        22.94124         3.19970
H         20.48741        22.04223         3.43040
O         30.32193        45.33860         2.62852
H         31.20139        45.33868         3.08716
O         24.42649        44.35402         2.52378
H         25.06004        43.73431         2.97482
O         15.91976        33.00741        -0.66753
H         16.87088        32.76796        -0.87587
O         28.33511        49.83803        -3.23541
H         28.88950        49.03746        -3.39254
O         22.14847         8.50577        -0.70144
H         22.10671         7.57493        -0.39664
O         28.62309        12.07087        -0.34732
H         28.07448        11.39479         0.10244
O         21.79151        17.60560         1.66134
H         22.33223        16.78753         1.74427
O         19.34048        35.10899         3.48940
H         19.01489        35.96415         3.87072
O         17.95699        37.42594         3.59248
H         17.60273        38.30197         3.88015
O         25.60520        43.77957        -0.90924
H         26.23445        44.27466        -1.49260
O         29.29812        33.87260         2.97823
H         30.09572        34.33401         3.33272
O         24.31709         8.92300        -4.49789
H         23.41874         9.31933        -4.63286
H          4.94941        31.04228        -0.13093
H          4.90177        33.50019        -0.24845
H          7.42598        26.79494         0.72238
H          6.22924        28.88276         0.11341
H          6.17605        35.69435        -0.26143
H          7.42723        37.82646        -0.35606
H          9.87310        22.59452         1.04314
H          9.00078        25.14081         2.51287
H          8.64888        39.97076        -0.50458
H          9.85874        42.12923        -0.62129
H         12.30848        18.36826         0.90187
H         11.10044        20.53355         0.71668
H         11.08612        44.26537        -0.79081
H         12.32798        46.42846        -0.90320
H         14.75657        14.06150        -0.57059
H         13.53192        16.24915        -0.30365
H         13.56475        48.55943        -1.09257
H         15.09165        50.65729        -0.21397
H         17.29399         9.97598        -1.85250
H         16.03145        11.97259        -1.15506
H         16.03727        52.84130        -1.33915
H         17.37835        55.08158        -1.67735
H         19.79720         5.84640        -2.83217
H         18.54127         7.94560        -2.44784
H         18.65358        57.10877        -2.40036
H         19.90378        59.08770        -2.87221
H         23.20966         2.58759        -3.58883
H         21.06588         3.75260        -3.12303
H         23.31979        62.34789        -3.52694
H         21.14975        61.16469        -3.28519
H         25.35447         3.82857        -3.66952
H         26.62230         5.90122        -3.23278
H         26.67972        58.99408        -3.03907
H         25.46545        61.11018        -3.34921
H         27.86173         7.97325        -2.75924
H         29.06964         9.90627        -2.56111
H         29.17067        54.84471        -2.17714
H         27.90124        56.92368        -2.73274
H         29.28700        12.65536        -3.55676
H         31.37019        14.47021        -2.34663
H         31.57010        50.65532        -0.93766
H         30.40475        52.70953        -1.47658
H         32.66269        16.57494        -1.66187
H         33.94205        18.58845        -1.10031
H         34.03393        46.61395         0.25057
H         32.81845        48.61483        -0.35682
H         34.60391        20.64756         0.99848
H         36.47789        22.69801        -0.16779
H         36.51314        42.29163         0.66288
H         35.24543        44.34598         0.29474
H         37.42584        25.03849         1.19051
H         39.09611        27.00482         0.38486
H         39.06444        38.13550         0.91820
H         37.79433        40.22950         1.02423
H         40.31831        29.14762         0.34357
H         41.56127        31.27807         0.49076
H         41.58067        33.72644         0.74107
H         40.39619        35.85370         0.92782
