         324
 CSIRO Nanostructure Databank - Neutral Graphene Oxide Data Set
C          1.96236         1.78891        -1.92562
C          2.51721         2.98492        -2.50759
C          2.33705         1.33961        -0.69843
C          3.40563         3.74292        -1.79995
C          2.55523         6.97087        -2.43168
C          2.09011         8.15798        -1.87581
C          3.39630         6.11204        -1.69829
C          2.41294         8.50893        -0.54425
C          1.32831        10.80745        -0.57449
C          1.30974        12.14633        -0.08738
C          2.02011         9.78549         0.04407
C          2.34598        12.77209         0.60847
C          1.12157        14.96390         0.79463
C          1.12929        16.34860         0.89249
C          2.32681        14.22590         0.76311
C          2.34955        17.06296         0.95421
C          2.37987        18.51457         0.98498
C          3.45417         1.94064         0.04576
C          4.01422         3.26273        -0.55849
C          4.81058         1.93072        -0.66055
C          4.78061         4.15490         0.39396
C          3.80806         6.44737        -0.39463
C          3.24247         7.60731         0.16638
C          4.76571         5.64431         0.45694
C          4.82814         8.57928         1.39394
C          3.62289        10.71567         1.20898
C          3.58145        12.08141         0.95072
C          4.85199         9.96003         1.30834
C          4.83073        12.81471         0.92218
C          3.55725        14.93289         0.85531
C          3.55982        16.34429         0.93677
C          4.81322        14.20953         0.81093
C          4.86430        17.08261         1.12976
C          3.54475        19.21290         0.85567
C          4.81856        18.54258         0.72548
C          6.07667         2.14267         0.05841
C          5.98514         3.37299         0.93289
C          7.24212         1.47143        -0.15484
C          7.28628         4.17136         0.98244
C          6.03324         6.32755         0.92384
C          6.03265         7.73319         1.37395
C          7.25283         5.65654         0.91430
C          7.36799         8.49570         1.34432
C          6.12300        10.67425         1.20254
C          6.09228        12.11299         0.99289
C          7.31774         9.96398         1.20170
C          7.27895        12.82450         0.75076
C          6.02646        14.94206         0.54410
C          6.00809        16.33358         0.51040
C          7.26541        14.20985         0.38133
C          7.11657        17.07160        -0.06620
C          5.96545        19.22019         0.38614
C          7.20642        18.53868         0.08716
C          8.52199         2.01995         0.25268
C          8.56453         3.43821         0.70468
C          9.70811         1.35736         0.07288
C          9.77551         4.22035         0.39354
C          8.53249         6.35471         0.85596
C          8.57115         7.76162         0.91952
C          9.74674         5.63098         0.51802
C          9.78618         8.49377         0.70435
C          8.61148        10.65719         1.13705
C          8.58334        12.16961         0.90938
C          9.82470         9.91130         0.76694
C          9.78568        12.82080         0.36955
C          8.46464        14.87933         0.06465
C          8.41881        16.29109        -0.32856
C          9.72915        14.19535         0.05149
C          9.65700        17.07155        -0.41921
C          8.40393        19.18089        -0.13794
C          9.64770        18.47322        -0.39215
C         10.98148         2.03785         0.19803
C         10.98584         3.48426         0.21149
C         12.18848         1.34511         0.18168
C         12.21625         4.16510         0.11079
C         10.96656         6.36891         0.32946
C         10.99007         7.75055         0.46078
C         12.17853         5.62732        -0.23065
C         12.29793         8.48881         0.61759
C         11.01691        10.65286         0.44504
C         10.98724        12.08413         0.23810
C         12.23138         9.96093         0.26210
C         12.18678        12.78203        -0.11585
C         10.93133        14.87861        -0.32527
C         10.88361        16.31726        -0.68535
C         12.14454        14.19934        -0.36017
C         12.18438        17.11335        -0.78571
C         10.88333        19.19941        -0.45263
C         12.12884        18.56531        -0.55212
C         13.44403         2.02726         0.22557
C         13.43429         3.46598         0.16986
C         14.67575         1.34473         0.27731
C         14.67919         4.17796         0.24270
C         13.48694         6.32959         0.04174
C         13.43635         7.82439        -0.15498
C         14.64582         5.64078         0.25561
C         14.70821         8.56793         0.12178
C         13.42695        10.66131        -0.04167
C         13.40561        12.05769        -0.19755
C         14.70897         9.93859        -0.02903
C         14.70594        12.81255        -0.15161
C         13.38376        14.93340        -0.75314
C         13.45858        16.40876        -0.59686
C         14.67036        14.18075        -0.78415
C         14.64402        17.09136        -0.36726
C         13.37236        19.23333        -0.45994
C         14.62625        18.57293        -0.39196
C         15.91504         2.03389         0.33959
C         15.87931         3.47696         0.35499
C         17.15291         1.32129         0.37974
C         17.14813         4.20473         0.54868
C         15.91634         6.36451         0.54564
C         15.94844         7.87488         0.46116
C         17.19407         5.67471         0.34815
C         17.23213         8.55689         0.23876
C         15.96225        10.62411        -0.17343
C         15.90791        12.02265        -0.61005
C         17.20608         9.97627        -0.05500
C         17.18991        12.76772        -0.85053
C         15.93036        14.93970        -0.64695
C         15.89446        16.31413        -0.33730
C         17.16783        14.24729        -0.71103
C         17.13651        16.87286         0.03237
C         15.78240        19.39960        -0.49854
C         17.09832        19.00636        -0.13502
C         18.41641         1.95258         0.46590
C         18.41675         3.43072         0.60314
C         19.65895         1.30306         0.53659
C         19.68066         4.15120         0.28735
C         18.37540         6.38130         0.23936
C         18.40803         7.82789         0.22362
C         19.65987         5.63836         0.09579
C         19.70129         8.56624         0.09303
C         18.42820        10.70702        -0.16232
C         18.45463        12.06298        -0.53175
C         19.67864        10.06645         0.39063
C         19.66841        12.77596        -0.58242
C         18.37571        14.94579        -0.72167
C         18.39305        16.33737        -0.37801
C         19.62833        14.19972        -0.98385
C         19.56522        17.14741        -0.45220
C         18.35978        19.39984        -0.55300
C         19.55834        18.59021        -0.36543
C         20.89907         2.02074         0.73463
C         20.91430         3.44887         0.69239
C         22.13595         1.40729         0.99331
C         22.05221         4.19595         1.01767
C         20.87685         6.35453         0.53891
C         20.98249         7.82410         0.32889
C         21.83501         5.61806         1.16930
C         22.24656         8.61495         0.63663
C         20.96585        10.76834        -0.00304
C         20.92933        12.11068        -0.38521
C         22.24087        10.08475         0.34497
C         22.15050        12.88918        -0.53458
C         20.89650        14.99157        -1.10213
C         20.79965        16.54859        -1.13499
C         22.14526        14.25018        -0.77204
C         22.10690        17.22746        -0.71247
C         20.78897        19.27296        -0.23744
C         22.04551        18.60797        -0.14635
C         23.34379         2.15583         1.12442
C         23.35617         3.59550         1.13775
C         24.57044         1.44985         1.19737
C         24.62996         4.30743         1.07722
C         23.71248         6.68493         1.07803
C         23.55840         7.91183         0.49515
C         24.77375         5.73249         0.86676
C         24.72490         8.52954        -0.16543
C         23.55710        10.77803         0.05258
C         23.46831        12.21566        -0.34074
C         24.80035        10.01190        -0.30611
C         24.66145        12.85910        -0.98272
C         23.40210        14.97282        -0.73488
C         23.37144        16.45240        -0.59927
C         24.61206        14.34357        -0.84117
C         24.52162        17.04085         0.15841
C         23.19122        19.22950         0.32043
C         24.44926        18.50017         0.57061
C         25.79873         2.11094         1.12239
C         25.84442         3.54986         1.01363
C         27.00332         1.34763         1.05097
C         27.11833         4.18330         0.82294
C         25.99750         6.32929         0.51048
C         25.99958         7.72276        -0.01603
C         27.19105         5.58341         0.59438
C         27.26252         8.50971        -0.03440
C         25.97553        10.61440        -0.73282
C         25.96183        12.09675        -1.10015
C         27.21944         9.81116        -0.76855
C         27.19892        12.93790        -1.03766
C         25.85366        15.14711        -0.81094
C         25.83512        16.45030        -0.13126
C         27.16910        14.41072        -0.84378
C         27.00581        17.10333         0.20301
C         25.73456        19.15918         0.79362
C         26.94337        18.46350         0.74554
C         28.22762         1.94460         0.79309
C         28.31809         3.38239         0.67755
C         29.40686         1.14474         0.57712
C         29.54641         3.95301         0.31006
C         28.48803         6.27091         0.48627
C         28.54448         7.72081         0.08423
C         29.72974         5.41491         0.29806
C         29.76350         8.22325        -0.57710
C         28.43176        10.20317        -1.29936
C         28.44061        12.46972        -1.42634
C         29.70963         9.52311        -1.14604
C         29.66926        13.09765        -1.09972
C         28.36308        15.10646        -0.33334
C         28.28622        16.42792         0.04355
C         29.61690        14.26858        -0.14479
C         29.52427        17.19479         0.34626
C         28.14750        19.07806         1.20446
C         29.40185        18.45510         1.11263
C         30.57608         1.71070         0.16239
C         30.67596         3.13498        -0.01568
C         31.84441         3.73420        -0.50486
C         30.91039         5.99531        -0.37047
C         30.93114         7.41785        -0.70076
C         31.92749         5.12353        -0.73827
C         32.09134         8.01410        -1.24238
C         30.91587        10.09764        -1.64324
C         30.91711        12.51689        -1.40836
C         32.09316         9.33820        -1.67080
C         32.11411        13.15213        -1.06587
C         30.90622        15.05066        -0.09647
C         30.86656        16.47739         0.33089
C         32.08275        14.44613        -0.47092
C         31.93168        17.05838         1.15200
C         30.56294        19.01851         1.67117
C         31.78532        18.30599         1.71348
O          3.60278         7.89920         1.49535
O         22.73641         6.29382         1.99165
O         29.39178         6.01533         1.60632
O          4.05668         4.83287         1.46719
O         15.86278         7.17407         1.76679
O         20.51328         8.15955        -1.04271
O          8.81001        11.60178         2.24950
O          8.11981         3.69594         2.09288
O         16.39421        12.24711        -1.97059
O         28.02905         8.55647         1.20012
O         11.47889        16.64880        -1.98750
O          7.47396        16.59581        -1.40960
O          3.85209         4.96273        -2.35369
O         20.25246        14.43236        -2.29764
O         23.78463        11.84516         1.04901
O         25.09272        12.35175        -2.27846
O         17.12417        17.98152         0.85512
O         30.99535        11.36710        -2.22615
O         13.94960        14.38227        -2.01816
O         28.48843        11.28696        -2.16732
O         25.29459         7.79667        -1.30720
O         26.62984        15.09857        -2.05109
O          6.82309         7.96749         2.59695
O          2.40649        10.02582         1.39124
O         23.07538        17.17796        -1.83969
O         19.74350         4.74385        -1.06798
O         24.24196        17.35321         1.54300
O         22.17716         9.54989         1.75657
O         30.42728        17.33754        -0.79976
O         17.80015         3.87349         1.85967
O          5.11866        17.09474         2.58292
H          4.34059        17.51425         3.00816
O         12.64867         8.40381         2.02425
H         11.90578         8.76904         2.54930
O         29.44554        13.66225         1.20276
H         29.54756        14.37502         1.86892
O          3.38140         1.75282         1.41218
H          4.19045         2.11700         1.86081
O         20.58547        16.92654        -2.51368
H         21.45707        16.85788        -2.96708
O         19.55606        10.19948         1.84516
H         20.45262        10.01355         2.22611
O         13.12519         8.06091        -1.57361
H         13.94113         7.91593        -2.09812
O         11.95726         5.64928        -1.68635
H         12.10036         6.58639        -1.97267
O          5.66296         2.94106         2.27708
H          5.38311         3.74300         2.77350
O         14.93806        13.09626         1.27014
H         14.90995        12.24731         1.76175
H          1.14414         1.28946        -2.46289
H          2.12999         3.34727        -3.46788
H          1.79036         0.52012        -0.21263
H          2.27989         6.69637        -3.45776
H          1.45821         8.82444        -2.47878
H          0.78730        10.60466        -1.51123
H          0.51966        12.79549        -0.49580
H          0.15862        14.43547         0.75709
H          0.17980        16.90271         0.91355
H          1.42133        19.05100         1.04218
H          4.85171         1.42848        -1.64157
H          3.52238        20.31091         0.78245
H          7.24566         0.55663        -0.76679
H          5.93195        20.31447         0.26175
H          9.70691         0.29822        -0.22609
H          8.44779        20.27791        -0.05842
H         12.18107         0.24509         0.15655
H         10.85194        20.29247        -0.32888
H         14.67695         0.24418         0.28954
H         13.36793        20.33334        -0.41420
H         17.11298         0.22150         0.34191
H         15.63143        20.41888        -0.88742
H         19.69415         0.20322         0.50593
H         18.47938        20.32514        -1.13571
H         22.20135         0.30938         1.03427
H         20.76454        20.36020        -0.07048
H         24.55338         0.35015         1.22476
H         23.14568        20.29187         0.60534
H         26.93654         0.25202         1.12577
H         25.74323        20.23203         1.03861
H         29.32988         0.05563         0.70890
H         28.08060        20.06615         1.68483
H         31.45973         1.08916        -0.04198
H         32.70149         3.09853        -0.76868
H         32.83452         5.50660        -1.22563
H         33.02364         7.43847        -1.31104
H         33.01278         9.78741        -2.06769
H         33.07507        12.70509        -1.34935
H         33.03084        14.99492        -0.36833
H         32.84525        16.47417         1.33321
H         30.49232        19.99067         2.17973
H         32.62357        18.74147         2.27628
