         324
 CSIRO Nanostructure Databank - Neutral Graphene Oxide Data Set
C          1.16796         3.39160        -0.40855
C          0.01025         4.10102        -0.52159
C          1.05690         6.22570         0.13131
C         -0.04779         5.51206        -0.25908
C          1.09134         7.71692         0.01777
C         -0.11961         8.51156         0.28449
C          1.14357        10.64124         0.33844
C         -0.08247         9.86561         0.37384
C          1.13620        12.05213         0.34540
C         -0.09477        12.81284         0.34787
C          1.12225        14.91991         0.00318
C         -0.11965        14.16242         0.21295
C          1.15593        16.45637         0.01917
C         -0.06608        17.23150         0.30096
C          1.24253        19.29831         0.50759
C         -0.00887        18.56229         0.53848
C          1.25716        20.73324         0.44729
C          0.06617        21.52375         0.67871
C          1.17046        23.62351         0.01509
C          0.04561        22.88112         0.59255
C          1.31578        25.09147         0.11002
C          0.24306        25.92603         0.64353
C          1.32697        27.94560        -0.27271
C          0.25451        27.27490         0.54928
C          1.54726        29.41684        -0.01777
C          3.66994         3.37662         0.02760
C          2.34581         3.97902         0.23357
C          3.55694         6.24195         0.72364
C          2.27057         5.49908         0.54408
C          3.59884         7.68023         0.53614
C          2.41059         8.45629         0.19565
C          3.58984        10.61620         0.58529
C          2.39648         9.92949         0.40406
C          3.62868        12.05971         0.50074
C          2.38197        12.79268         0.32999
C          3.63639        14.95362         0.12537
C          2.38204        14.18460         0.20830
C          3.61918        16.42009         0.35919
C          2.44848        17.13551         0.30786
C          3.70596        19.29065         0.43914
C          2.45393        18.58598         0.44160
C          3.72644        20.70988         0.33440
C          2.48273        21.39800         0.24317
C          3.76073        23.53409        -0.16778
C          2.48808        22.81260        -0.13085
C          3.74540        24.92439        -0.44028
C          2.50705        25.67361        -0.28265
C          3.88552        27.82131        -0.53923
C          2.61203        27.15123        -0.18058
C          3.89468        29.28854        -0.75421
C          2.70858        30.02767        -0.34677
C          6.11961         3.41368         0.00285
C          4.86561         4.05168         0.21436
C          6.13856         6.25568         0.36845
C          4.89905         5.47858         0.63565
C          6.13479         7.65806         0.48973
C          4.86644         8.36193         0.80945
C          6.12991        10.55141         0.56759
C          4.85106         9.86734         0.83134
C          6.10153        12.01158         0.83397
C          4.83915        12.73957         0.60455
C          6.19926        14.90341         0.62622
C          4.93461        14.17819         0.34340
C          6.18293        16.36567         0.78720
C          4.88179        17.12061         0.71486
C          6.15334        19.28779         0.62476
C          4.93700        18.59092         0.53739
C          6.18101        20.70862         0.51234
C          4.97629        21.41531         0.31110
C          6.19647        23.54604        -0.16650
C          4.98353        22.84651         0.03333
C          6.19440        24.88383        -0.63491
C          4.96934        25.57795        -0.72650
C          6.28104        27.67009        -1.26435
C          4.93984        26.99158        -1.24029
C          6.28445        29.10772        -1.33061
C          5.06367        29.87639        -1.14120
C          8.57592         3.44033        -0.08870
C          7.34634         4.11330         0.02409
C          8.56497         6.28707        -0.00103
C          7.34802         5.56334         0.12259
C          8.52991         7.70258        -0.01350
C          7.32142         8.40131         0.23264
C          8.51627        10.63696        -0.02047
C          7.27756         9.86428         0.26774
C          8.59210        12.07332         0.34559
C          7.38103        12.77131         0.85635
C          8.67085        14.93710         0.56020
C          7.39131        14.24482         0.70087
C          8.66508        16.40550         0.50669
C          7.46081        17.09067         0.68236
C          8.75063        19.30023         0.76961
C          7.41734        18.54645         0.88025
C          8.74915        20.73029         0.43841
C          7.47228        21.44644         0.57729
C          8.72225        23.49809        -0.41204
C          7.48670        22.92264         0.15717
C          8.65269        24.78107        -1.01192
C          7.44875        25.51173        -1.02173
C          8.72220        27.57879        -1.63070
C          7.45714        26.92173        -1.34129
C          8.71121        29.03617        -1.66800
C          7.49354        29.76126        -1.47344
C         11.03569         3.42839        -0.12638
C          9.81592         4.13379        -0.10293
C         11.05869         6.26074        -0.11502
C          9.82765         5.57586        -0.09130
C         11.08708         7.70687        -0.19321
C          9.79224         8.42109        -0.32786
C         11.07169        10.65379        -0.07544
C          9.80015         9.91783        -0.26860
C         11.10714        11.99884         0.19623
C          9.89347        12.72335         0.74356
C         11.10302        14.87289         0.08625
C          9.84128        14.21386         0.46309
C         11.12719        16.37607        -0.04022
C          9.90478        17.12525         0.34468
C         11.16338        19.27014         0.31338
C          9.95917        18.52290         0.45771
C         11.19139        20.66430         0.19132
C          9.93897        21.39840         0.14198
C         11.18828        23.37220        -0.68421
C          9.94726        22.78182        -0.29589
C         11.17289        24.62589        -1.50899
C          9.82387        25.31768        -1.81474
C         11.10636        27.51367        -2.29720
C          9.89533        26.84541        -1.79633
C         11.09205        29.06006        -2.26721
C          9.88744        29.73879        -1.82436
C         13.50998         3.40803        -0.10904
C         12.27890         4.10246        -0.12972
C         13.53811         6.22306        -0.14965
C         12.29888         5.54048        -0.14077
C         13.54829         7.69001        -0.01308
C         12.27132         8.40435        -0.24954
C         13.62419        10.58715        -0.24250
C         12.30396         9.87954        -0.38709
C         13.60925        11.94696         0.36132
C         12.35690        12.73864         0.29427
C         13.58622        14.87698         0.61604
C         12.36033        14.11276         0.32150
C         13.65314        16.31359         0.38940
C         12.45044        17.08589         0.02420
C         13.60847        19.26586         0.94444
C         12.46202        18.56384         0.23662
C         13.69854        20.71895         0.40312
C         12.45888        21.35446         0.02901
C         13.68144        23.36378        -0.83128
C         12.41219        22.69669        -0.46902
C         13.69506        24.82790        -1.12166
C         12.47378        25.37452        -1.77682
C         13.72061        27.69215        -1.93541
C         12.47620        26.80734        -2.39342
C         13.53605        29.16268        -1.64748
C         12.33629        29.76493        -1.97383
C         15.95860         3.35947        -0.21060
C         14.73733         4.09057        -0.13404
C         16.03728         6.21064        -0.26362
C         14.76843         5.52929        -0.16439
C         16.13402         7.64548        -0.29954
C         14.88783         8.40427        -0.04302
C         16.11792        10.56187        -0.27019
C         14.90965         9.86060        -0.19033
C         16.13288        11.95469        -0.05267
C         14.94492        12.62867         0.50431
C         16.13820        14.88621         0.42975
C         14.93732        14.11188         0.68790
C         16.11482        16.26506         0.65052
C         14.85350        16.98859         0.60368
C         16.06555        18.92918         1.26862
C         14.86930        18.41325         0.83872
C         16.14766        21.05523         0.92955
C         14.90601        21.44855         0.34499
C         16.19854        23.52774        -0.16199
C         14.98163        22.70995        -0.41394
C         15.88559        24.99005         0.06129
C         14.82047        25.55166        -0.88515
C         16.05045        27.73702        -0.77944
C         14.92838        26.96675        -1.31784
C         15.74945        29.74297        -0.54586
C         14.40559        29.99010        -0.86153
C         18.26248         3.10698        -0.84168
C         17.18815         3.97964        -0.38669
C         18.42908         6.16393        -0.50228
C         17.23098         5.43684        -0.36096
C         18.49879         7.53436        -0.86172
C         17.32631         8.32724        -0.62355
C         18.65366        10.56007        -0.39298
C         17.35532         9.85527        -0.83177
C         18.59854        11.86154         0.39272
C         17.39750        12.70031        -0.08708
C         18.62188        14.83085         0.67751
C         17.40432        14.17732         0.17217
C         18.59128        16.22881         0.91285
C         17.36401        16.96922         0.81675
C         18.55803        19.15746         1.10884
C         17.35385        18.35289         1.06719
C         18.59943        20.59899         0.82395
C         17.43723        21.50008         0.57507
C         18.53467        23.85602         0.47306
C         17.40988        22.94487         0.19892
C         18.33371        25.26943         0.64729
C         17.08942        25.85040         0.29205
C         17.97181        28.16314         0.70207
C         17.00023        27.27291         0.16222
C         17.68717        29.53748         0.99591
C         16.50956        30.20777         0.53280
C         19.38803         3.47262        -1.52371
C         20.28960         5.61967        -2.57626
C         19.82173         4.84661        -1.54093
C         20.39152         7.03912        -2.47183
C         19.66113         7.90399        -1.65890
C         21.07276        10.92806        -0.74680
C         19.85639        10.21784        -0.97658
C         21.06195        12.14511        -0.07806
C         19.86439        12.69639         0.39305
C         20.97692        14.79913         1.22709
C         19.81997        14.09027         0.78929
C         20.94985        16.16059         1.46033
C         19.77100        16.93475         1.26264
C         21.02224        19.04039         1.26889
C         19.76712        18.38986         1.25891
C         21.08973        20.35761         0.87451
C         19.91384        21.06465         0.56739
C         20.95481        24.24482         0.78859
C         19.87026        23.43201         0.43871
C         20.71862        25.58072         1.11837
C         19.43603        26.11547         0.99469
C         19.86713        28.21427         2.33812
C         19.33026        27.62670         1.06268
C         19.47002        29.46828         2.71599
C         18.47021        30.16957         1.99812
O          4.86611         9.11379         2.09849
O         11.93673        24.41679        -2.74198
O         10.90391        28.31185        -3.50456
O         13.00434        10.42996        -1.56931
O          8.39398        11.71056        -1.04427
O         16.40493        28.85622        -1.47827
O          4.47321        14.55274        -1.02031
O          8.13938        19.00193         2.07243
O         14.83481        27.28543        -2.76199
O         14.50804        22.61947        -1.80140
O          9.73964         9.21528        -1.56581
O         11.00451        15.53506        -1.23532
O          1.12426        15.72538        -1.24742
O          1.61324        23.10098        -1.27170
O         14.21813         8.08485         1.25238
O         12.71972        18.02825        -1.09280
O          1.85302         8.12782        -1.16908
O         19.64542         5.50858        -0.29518
O         19.98509         9.21892        -1.93066
O          2.06291         4.50415         1.57624
O          4.30767         5.79481         1.91721
O         16.05442        20.13541         1.97924
O          3.58368        27.51273         0.86202
O          6.80851        12.31879         2.11887
O         17.61440        13.59136        -1.21568
O         14.22123        14.50547         1.89205
O          5.41760        16.71146         2.03118
O          7.54915        22.52143         1.57102
O         14.30590        11.93590         1.64147
O         20.18341        22.21658        -0.15322
O         15.16459        25.00366         1.37538
H         15.81903        24.76595         2.06782
O         18.25457        11.58375         1.78668
H         18.98083        11.05730         2.18150
O         13.23714        19.35671         2.34292
H         14.00478        19.74011         2.82137
O          4.49205        26.93295        -2.63500
H          5.17215        26.45175        -3.15218
O          9.48871        24.99164        -3.19063
H         10.33409        25.00903        -3.69993
O         20.23285        28.13609        -0.00483
H         19.77222        28.00911        -0.86174
O         17.27256        10.03000        -2.27250
H         17.34463        10.98804        -2.47104
O          0.91249        27.83188        -1.67245
H          0.04763        28.28135        -1.77074
O         12.65809        26.60788        -3.80039
H         13.59896        26.36874        -3.95484
O          9.97177        12.55504         2.18984
H         10.81188        12.95053         2.50574
H          1.23677         2.36719        -0.80302
H         -0.87915         3.62607        -0.95934
H         -0.97079         6.04459        -0.53040
H         -1.07329         7.98294         0.42621
H         -1.03205        10.39395         0.53572
H         -1.05114        12.28276         0.45125
H         -1.08258        14.69055         0.18165
H         -1.04057        16.72733         0.24211
H         -0.94674        19.11253         0.69405
H         -0.83071        21.01460         1.05836
H         -0.84077        23.43037         0.94035
H         -0.58870        25.42768         1.16318
H         -0.56684        27.87314         0.97265
H          0.68652        30.01965         0.31304
H          3.70328         2.34854        -0.36389
H          2.79487        31.12257        -0.26380
H          6.13372         2.32469        -0.15355
H          5.12773        30.97034        -1.24466
H          8.58241         2.34142        -0.14368
H          7.52951        30.86029        -1.49130
H         11.02066         2.32834        -0.12511
H          9.91442        30.82515        -1.65490
H         13.50724         2.30810        -0.08987
H         12.22485        30.83072        -1.71968
H         15.90112         2.26084        -0.24613
H         13.94928        30.89503        -0.43339
H         18.00361         2.03562        -0.83970
H         16.13214        31.06586         1.10661
H         19.95558         2.71086        -2.08051
H         20.59556         5.14265        -3.51835
H         21.03822         7.53876        -3.20892
H         21.99951        10.54178        -1.18915
H         21.99357        12.72468        -0.00930
H         21.91555        14.25266         1.39620
H         21.87741        16.63969         1.80116
H         21.94908        18.48687         1.45946
H         22.05625        20.85403         0.72005
H         21.97444        23.84267         0.74105
H         21.55985        26.24247         1.36543
H         20.64701        27.67726         2.89724
H         19.92372        29.94842         3.59572
H         18.21379        31.19534         2.29949
