         280
 CSIRO Nanostructure Databank - Neutral Graphene Oxide Data Set
C         31.41921        31.45669        -2.83109
C         31.36696        32.73444        -2.67336
C         30.94057        35.56099        -0.80823
C         30.79258        36.76408        -0.49348
C         30.45975        39.99007        -0.04532
C         30.17022        41.19842         0.20815
C         33.76018        28.79506        -1.67281
C         32.74666        29.29469        -2.20468
C         33.74297        31.47332        -2.18969
C         32.49466        30.66801        -2.48386
C         33.56978        33.02917        -2.04326
C         32.21999        33.65557        -2.11449
C         33.26806        36.05839        -1.48291
C         31.94394        35.12724        -1.86186
C         33.07820        37.21302        -0.45603
C         31.76347        37.80143        -0.29332
C         32.83227        40.03180        -0.13226
C         31.63147        39.19121        -0.12261
C         32.81897        41.39841        -0.42863
C         30.85636        42.32432        -0.29215
C         32.38805        44.19661         0.14312
C         31.31302        43.54238         0.23652
C         36.22430        27.63704        -0.03153
C         36.19568        28.81642        -0.82842
C         35.01352        29.42002        -1.34039
C         36.00325        31.64290        -1.05537
C         34.92882        30.82340        -1.55378
C         35.84019        33.03575        -0.90025
C         34.45336        33.67191        -0.99815
C         35.53613        35.80932        -0.20051
C         34.58513        35.21568        -1.30576
C         35.47621        37.29086         0.16324
C         34.17713        37.95645        -0.02345
C         35.27338        40.15420         0.31538
C         34.11457        39.39174         0.16319
C         35.14361        41.64314         0.53484
C         34.00653        42.31412        -0.26856
C         35.01742        44.55796         0.67128
C         33.76266        43.76451         0.42304
C         35.20862        46.02298         0.57351
C         37.24699        26.99942         2.22058
C         36.36297        27.03109         1.03147
C         38.74562        28.92630        -0.40592
C         37.38946        29.60093        -0.67882
C         38.43981        31.75679        -0.23696
C         37.23200        30.98409        -0.67939
C         38.13194        33.14268         0.26756
C         36.90467        33.80977        -0.21537
C         38.06111        36.03453         0.29089
C         36.96859        35.30196        -0.45512
C         38.05144        37.54701         0.20376
C         36.67921        38.07959         0.58710
C         37.79942        40.36044         0.79700
C         36.52063        39.56238         0.94354
C         37.75247        41.70959         0.61663
C         36.46465        42.40580         0.34423
C         37.66040        44.61721         1.03724
C         36.41124        43.89436         0.49868
C         37.69217        46.11204         0.61354
C         36.34339        46.53597         0.51732
C         39.66873        24.44441         0.97148
C         38.78423        25.19443         1.41755
C         39.81707        27.25833         1.65427
C         38.62196        26.56290         1.79352
C         39.88009        28.75125         1.93991
C         39.61800        29.60000         0.65686
C         40.17563        31.80413         1.65081
C         39.20144        31.03248         0.84905
C         40.23322        33.31622         1.73477
C         39.26681        33.95552         0.76438
C         40.51365        36.11039         0.70044
C         39.21851        35.35996         0.63583
C         40.36795        37.56092         1.08932
C         39.18532        38.22563         0.94027
C         40.31505        40.46180         0.92294
C         39.06630        39.70022         1.31525
C         40.25874        41.78873         0.61117
C         38.98240        42.51408         0.62146
C         40.23659        44.68111         0.97697
C         38.95970        43.88455         0.69990
C         40.20200        46.07875         0.30807
C         38.85824        46.82058         0.44427
C         40.09725        48.80961        -0.03015
C         38.97374        48.20610         0.13217
C         42.22663        24.54470         0.42971
C         41.06849        24.93163         1.29583
C         42.22350        27.20185         1.09063
C         41.04822        26.54001         1.28896
C         42.38708        28.70128         1.25636
C         41.07493        29.50746         1.36996
C         42.47334        31.65181         0.83525
C         41.42520        30.97253         1.84348
C         42.70252        33.16964         1.08206
C         41.57278        33.92985         1.45073
C         42.88045        36.09996         1.36335
C         41.54950        35.43644         1.62231
C         42.81590        37.55244         1.01201
C         41.63970        38.25446         1.15593
C         42.67356        40.32150         0.19854
C         41.64455        39.76721         1.18533
C         42.75541        41.80504         0.45942
C         41.48178        42.56047         0.13096
C         42.71448        44.71087         0.33721
C         41.54349        44.01981         0.54489
C         42.76535        46.25902         0.26784
C         41.44292        46.83244         0.82340
C         42.72055        48.94341         0.35041
C         41.40752        48.58015         0.18958
C         43.29304        25.16571         0.41870
C         44.75712        27.22046         0.77081
C         43.56657        26.43280         1.19836
C         44.74070        28.51794         0.33708
C         43.44958        29.33074         0.29122
C         44.82709        31.59593        -0.22992
C         43.79574        30.83808         0.72527
C         45.20879        32.98405         0.48501
C         43.94284        33.79273         0.80312
C         45.24139        36.04578         0.48955
C         44.07833        35.27402         1.02571
C         45.21394        37.37083         0.18143
C         43.89985        38.10463         0.10226
C         45.16134        40.27499        -0.14512
C         44.00789        39.61171         0.16910
C         45.25560        41.73643        -0.05417
C         44.06008        42.51596         0.41163
C         45.15178        44.54331        -0.25898
C         43.97171        43.97834         0.10957
C         45.36121        46.69096         0.29734
C         44.03793        46.97824         0.95767
C         43.77007        48.49132         0.90853
C         47.18339        27.11286         0.34981
C         46.08693        26.67726         0.71837
C         47.30853        28.40154        -0.36191
C         45.93532        29.12623        -0.33374
C         47.29805        31.14592        -1.01340
C         45.97025        30.59442        -0.62997
C         47.37773        33.39052        -0.82431
C         46.30998        33.88182        -0.13615
C         47.75517        35.99710         0.05172
C         46.49300        35.26263         0.37692
C         47.72571        37.45809        -0.20289
C         46.36172        37.97750        -0.63188
C         47.59269        40.24971        -1.00570
C         46.24413        39.52615        -0.90063
C         47.59397        41.77512        -0.96705
C         46.39363        42.42750        -0.39831
C         47.69826        44.69341        -0.10857
C         46.44038        43.84591         0.14759
C         47.40686        45.94494         0.24797
C         46.62625        46.85196         0.88430
C         49.94470        28.73998        -0.07334
C         48.59438        29.16844        -0.51733
C         49.79747        31.54390        -0.58612
C         48.53800        30.65089        -0.77440
C         49.85427        33.03660        -1.04977
C         48.73761        33.89590        -0.81156
C         50.11819        35.93016        -0.75019
C         48.89187        35.26338        -0.53282
C         50.17138        37.36619        -0.62982
C         48.90709        38.08495        -0.50344
C         50.14995        40.30751        -0.62973
C         48.89285        39.52146        -0.88931
C         50.15923        41.82274        -0.73074
C         48.86932        42.57979        -1.06900
C         50.21442        44.56655        -0.60418
C         48.81863        44.19597        -1.00243
C         50.93513        29.38630        -0.53619
C         52.12043        31.55430        -1.35994
C         51.12317        30.70973        -0.91864
C         52.18175        32.80199        -1.58821
C         51.11315        33.69775        -1.24499
C         52.36926        35.95374        -1.31077
C         51.23449        35.11650        -1.16250
C         52.44533        37.19958        -1.18216
C         51.38055        38.08721        -0.86065
C         52.47914        40.39725        -0.88646
C         51.43188        39.51922        -0.79042
C         52.57004        41.68227        -0.88275
C         51.50467        42.54286        -0.84725
C         51.27182        43.94846        -0.80861
O         31.81957        41.88921        -1.31350
O         48.30087        39.75978        -2.20367
O         35.97711        37.32631         1.60311
O         36.59191        43.31134        -0.80667
O         45.23120        45.82778        -0.83407
O         43.83093        35.74193         2.43138
O         39.01595        27.85804        -0.91158
O         50.04788        41.13659         0.57434
O         45.51819        29.64104        -1.66714
O         43.43593        42.14271         1.68663
O         48.13972        42.22963        -2.27710
O         45.68028        39.54807        -2.30999
O         38.90415        31.35899         2.25072
O         47.99255        28.41647        -1.61610
O         34.23011        44.04139         1.75043
O         47.17054        32.33995        -1.70657
O         36.90664        27.29215         3.33986
O         36.99640        33.32400         1.19538
O         47.45986        35.54164         1.45242
O         34.12393        32.44491        -3.22543
O         41.16312        35.78371         2.96787
H         41.90958        35.53613         3.55523
O         44.08936        46.56361         2.31939
H         44.97497        46.79088         2.68130
O         42.76644        46.61884        -1.12013
H         43.59649        46.28121        -1.53291
O         37.41532        35.44423        -1.82018
H         37.54630        36.40485        -2.00440
O         33.71141        33.32765         0.19010
H         34.20187        33.66259         0.97884
O         41.40433        42.60112        -1.32578
H         40.67017        43.20497        -1.57271
O         34.76051        41.74098         1.92726
H         35.31657        41.10305         2.44158
O         43.38249        37.75636        -1.23781
H         44.14613        37.77542        -1.86484
O         42.95224        28.77283         2.59471
H         42.26316        28.51553         3.24373
O         40.26803        44.83066         2.42095
H         40.59687        43.99270         2.81016
O         46.32387        43.72011         1.59205
H         47.14998        43.33070         1.94787
O         40.99225        36.06619        -0.67159
H         41.72856        36.71431        -0.80163
O         49.82910        31.67165         0.85431
H         50.63093        32.17230         1.11539
O         39.01295        39.76499         2.77783
H         38.06670        39.62170         3.03435
O         43.74906        26.05907         2.55091
H         43.00928        25.45724         2.81394
O         42.01959        40.12214         2.53352
H         41.25959        39.89668         3.11503
O         31.44767        35.62689        -3.10686
H         30.76213        35.00920        -3.43966
O         35.20023        35.17321        -2.58615
H         34.90641        35.96245        -3.10113
O         48.58625        44.69223        -2.30582
H         48.27236        43.95207        -2.87583
O         44.44874        30.76714         1.98188
H         43.86695        30.28500         2.62068
O         41.37448        24.54659         2.62202
H         41.31417        23.57100         2.69493
O         39.83236        33.63859         3.09658
H         38.95579        33.21572         3.23728
O         35.09940        35.17075         1.02523
H         35.66279        35.51040         1.75772
O         39.30817        29.00942         3.17991
H         39.12138        29.97616         3.26400
O         34.40790        42.60825        -1.61115
H         33.59371        42.66561        -2.15862
O         40.33172        45.79641        -1.09597
H         40.47142        46.64077        -1.57619
O         33.49493        36.88885        -2.64408
H         32.65596        36.91819        -3.16530
O         41.80525        31.58400        -0.44325
H         42.48880        31.78987        -1.13467
O         45.63421        40.91588        -2.76976
H         46.50262        41.02311        -3.23563
O         42.90684        29.27604        -1.02778
H         43.65922        29.26162        -1.66611
O         37.53844        44.61154         2.47224
H         38.39376        44.93423         2.84671
O         45.86146        32.66831         1.73282
H         46.00701        33.50135         2.23010
O         36.29789        39.60973         2.41013
H         35.79742        38.77988         2.62597
O         41.88698        30.99880         3.19055
H         41.75439        31.90276         3.54742
O         46.20313        37.31579        -1.93000
H         46.83063        37.73510        -2.56130
O         39.28793        31.89205        -1.39631
H         40.23775        31.87901        -1.11509
O         42.09893        40.08030        -1.10271
H         42.67379        40.48044        -1.78878
O         41.40865        46.99449         2.17678
H         42.31865        47.09812         2.54485
O         44.20028        31.97155        -1.46859
H         44.42662        31.29750        -2.14821
O         38.23373        37.94399        -1.20222
H         39.16022        37.72299        -1.44926
