         260
 CSIRO Nanostructure Databank - Neutral Graphene Oxide Data Set
C         32.02010        33.45650        -3.68343
C         31.64225        34.26245        -2.82493
C         30.73628        36.58843        -0.76659
C         30.52537        37.57382        -0.05955
C         30.46332        40.64001         0.39584
C         30.21125        41.84788         0.34150
C         34.82330        31.00535        -4.14973
C         33.82303        31.67760        -4.41993
C         33.97091        32.96466        -2.34334
C         33.44821        33.01433        -3.82790
C         33.51133        33.85944        -1.34676
C         32.14302        34.48725        -1.46434
C         32.63982        35.97227         0.66525
C         31.70544        35.52078        -0.48652
C         32.57487        37.38257         1.34216
C         31.31829        38.24693         0.95832
C         32.65291        40.39079         1.47957
C         31.36200        39.71889         1.10301
C         32.66750        41.69334         1.88512
C         30.88397        42.94910         0.95573
C         32.69710        44.28083         0.98705
C         31.56548        44.00965         0.38633
C         36.82024        28.72762        -3.20022
C         36.81712        30.10935        -2.55039
C         35.75035        31.10831        -3.01311
C         35.53311        32.00480        -0.61209
C         35.14498        32.12445        -2.04349
C         35.31568        33.22319         0.23704
C         34.30407        34.20112        -0.21962
C         35.07323        35.86732         1.64179
C         33.94040        35.23227         0.79025
C         35.18270        37.38321         1.29043
C         33.91026        38.15257         1.04595
C         35.16535        40.21494         1.94061
C         33.96641        39.71842         1.04309
C         35.24202        41.77169         1.96989
C         33.92390        42.50199         2.00807
C         35.10059        44.73577         1.58350
C         33.87992        43.92058         1.51688
C         35.20503        45.90878         0.71446
C         37.99172        27.55299        -1.34508
C         37.44909        27.81925        -2.63456
C         37.82818        28.81959        -0.48706
C         36.71876        29.77684        -1.01885
C         37.70515        31.58548         0.69477
C         36.63498        31.06389        -0.21123
C         37.69758        33.04317         0.98571
C         36.47266        33.71013         1.01795
C         37.74591        35.83553         1.54837
C         36.41298        35.09257         1.51731
C         37.72033        37.33766         1.69388
C         36.46086        38.13674         1.53533
C         37.78115        40.25210         1.22361
C         36.47457        39.50759         1.56827
C         37.77109        41.80993         1.32436
C         36.47693        42.54785         1.54787
C         37.68879        44.77448         1.09197
C         36.48384        44.06506         1.69044
C         37.49077        45.88575         0.02181
C         36.06270        46.19117        -0.13358
C         40.27934        24.75739        -1.10863
C         39.24058        25.32635        -1.54489
C         40.27785        27.12849         0.38678
C         38.57181        26.40562        -0.87465
C         40.18861        28.55714         0.73527
C         38.88721        29.31707         0.50070
C         40.21120        31.48077         0.36867
C         38.97002        30.80272         0.98966
C         40.21317        33.07388         0.41331
C         38.96602        33.74754         1.01549
C         40.21617        35.90629         0.87146
C         38.97210        35.12657         1.12569
C         40.26085        37.38608         1.23438
C         39.02058        38.05895         1.74712
C         40.29905        40.27955         1.91621
C         38.99706        39.56942         1.82742
C         40.34085        41.79679         1.85393
C         39.06338        42.59363         1.58371
C         40.04580        44.52854         0.10624
C         39.09639        44.15641         1.26551
C         39.74048        45.38581        -1.02878
C         38.48315        46.05615        -1.04045
C         39.18315        47.27913        -3.04139
C         38.36102        46.87315        -2.19149
C         42.76623        24.53358        -0.42363
C         41.48043        25.10204        -0.45876
C         42.73588        27.23048         0.22286
C         41.47448        26.47574         0.10630
C         42.74625        28.59942         0.45557
C         41.49915        29.30478         0.84647
C         42.72668        31.56513         1.07988
C         41.45463        30.81616         0.96304
C         42.72562        33.04217         0.92600
C         41.52704        33.73407         0.83962
C         42.68690        35.92062         0.89821
C         41.50991        35.18786         0.86153
C         42.71923        37.36057         1.09627
C         41.56719        38.05240         1.41797
C         42.84323        40.28135         1.41867
C         41.59443        39.50838         1.76282
C         42.74252        41.72195         1.07558
C         41.66564        42.39624         1.55585
C         42.43463        44.36408        -0.64824
C         41.36602        44.22844         0.30661
C         42.12281        45.23841        -1.77818
C         40.77152        45.67381        -1.98921
C         41.64117        47.09542        -3.83852
C         40.38589        46.40808        -3.34791
C         43.81776        25.11991        -0.04996
C         45.23023        27.17143         0.28684
C         44.02778        26.51638         0.11940
C         45.35230        28.69818         0.09997
C         43.99803        29.40470         0.31575
C         45.26059        31.54613         1.10305
C         43.99297        30.84919         0.70738
C         45.22574        33.02838         0.98309
C         44.01953        33.70836         0.96589
C         45.26721        35.95166         0.99935
C         43.97539        35.19494         1.05298
C         45.28800        37.40484         0.72198
C         43.96773        38.11505         0.65793
C         45.35539        40.28268         0.74261
C         44.11712        39.54176         1.12856
C         45.14064        41.65971         0.16398
C         43.80701        42.37144         0.24327
C         44.76710        43.99911        -1.40836
C         43.65824        43.71457        -0.44992
C         44.50492        45.00500        -2.53653
C         43.19743        45.64691        -2.62204
C         42.74795        46.58000        -3.58836
C         47.63817        27.22716         0.62651
C         46.53749        26.66601         0.43058
C         47.75511        28.63956         0.92561
C         46.57276        29.34097         0.80569
C         47.90239        31.56039         1.28716
C         46.55519        30.79037         1.19232
C         47.82297        32.98671         0.79456
C         46.52434        33.71667         0.58449
C         47.81230        35.92587         0.62638
C         46.56277        35.18440         0.97918
C         47.52027        37.18252        -0.13205
C         46.45236        38.07173         0.40884
C         47.77276        40.21599         0.12224
C         46.57980        39.52171         0.31328
C         47.70489        41.70201        -0.11740
C         46.38796        42.42831        -0.15866
C         47.39674        44.32374        -1.64917
C         46.19928        43.70828        -0.94699
C         46.91880        45.15575        -2.76449
C         45.78132        45.60096        -2.95474
C         50.24527        28.69149         0.45541
C         49.07378        29.31805         1.19392
C         50.32456        31.49531         0.31263
C         48.99150        30.76447         0.53107
C         50.32245        32.90394         0.17000
C         49.10904        33.68318         0.58229
C         50.21873        35.90510        -0.29481
C         49.11686        35.18551         0.44241
C         50.29819        37.42051        -0.21145
C         49.40314        38.25510         0.68356
C         50.28472        40.34703        -0.10906
C         49.12751        39.64415         0.14223
C         50.23270        41.78987        -0.47751
C         48.85828        42.28564        -0.90052
C         50.00847        44.20398        -1.85785
C         48.68852        43.57390        -1.68216
C         51.27873        29.30954         0.16080
C         52.61848        31.49742        -0.32136
C         51.50021        30.72051         0.00572
C         52.56689        32.75956        -0.42162
C         51.49104        33.62779        -0.23667
C         52.60978        35.97480        -0.69028
C         51.46255        35.06420        -0.59631
C         52.66337        37.20736        -0.65561
C         51.59291        38.19636        -0.49872
C         52.68441        40.50832        -0.47524
C         51.66799        39.58788         0.12153
C         52.63330        41.64556        -0.93963
C         51.50838        42.57865        -0.87841
C         51.12998        43.68875        -1.75103
O         36.98004        42.29104         0.18689
O         40.07510        36.93462        -0.16447
O         35.83897        44.72443         2.81511
O         45.09400        39.93445         2.13656
O         31.25501        34.17111        -0.36096
O         49.53676        34.61049         1.70541
O         41.96118        31.20094         2.27222
O         34.66432        37.62213        -0.08645
O         37.17045        35.22326         2.75396
O         34.53371        31.96626         0.43658
O         44.61342        35.67811         2.29728
O         48.61912        42.27932        -2.34418
O         47.91664        37.33878        -1.28063
O         37.85496        46.18577         1.38731
O         36.55798        30.86149         1.23001
O         41.74402        43.78125         1.57592
O         40.83813        28.75341         2.03714
O         49.10084        37.93189         1.81670
O         31.48741        42.39198         2.17752
O         34.70944        42.29352         3.22640
O         47.38106        35.76086         2.00933
O         43.88411        30.48838        -0.71384
O         32.77193        34.90366         1.62801
O         47.26781        42.53730         0.99870
O         50.57747        38.07071        -1.49265
O         42.50158        39.95074         2.81395
O         39.51781        39.93586         3.11648
O         40.04455        33.54365        -1.00452
O         50.47761        35.36968        -1.62202
O         44.18145        41.48580        -0.91753
O         37.70283        28.59395         0.93717
O         39.05322        26.46143         0.47075
O         39.54875        42.37457         2.93324
O         45.74981        31.04458         2.40241
O         36.31454        32.44105        -2.93579
O         44.48735        43.56450        -2.77878
O         46.94054        44.82691        -0.37195
O         50.96284        42.68522         0.44363
O         30.69460        38.87795         2.08188
O         38.43120        37.57328         2.98026
O         35.46293        29.11325        -0.83920
H         35.33326        28.96914         0.12364
O         46.38661        33.83023        -0.90202
H         46.64833        32.97220        -1.30306
O         34.68994        35.76341         3.01463
H         35.51125        35.72031         3.55849
O         41.33210        33.35244        -1.69768
H         41.16694        33.85232        -2.53468
O         39.13116        30.80784         2.40531
H         38.35474        30.35741         2.80139
O         34.88540        39.76037         3.27066
H         34.67541        40.54312         3.83501
O         37.97086        39.98197        -0.19386
H         37.34904        40.56384        -0.69030
O         40.00772        45.41773        -4.26666
H         39.76730        45.83639        -5.11868
O         49.37615        29.39719         2.56066
H         49.28736        28.51164         2.96712
O         45.66810        28.81141        -1.31067
H         45.22447        29.62382        -1.65066
O         38.08825        30.68677        -2.76098
H         38.08531        31.17786        -3.60883
O         39.61075        44.81025         2.42526
H         39.80231        44.13991         3.12317
O         34.17789        34.00892        -4.50409
H         33.90363        34.02741        -5.44368
O         48.27709        31.65567         2.66973
H         47.47024        31.87896         3.18587
O         51.87225        39.42605         1.50883
H         51.96837        40.30479         1.93193
O         43.71311        38.28778        -0.78459
H         43.56242        37.40824        -1.19158
O         48.44944        30.58406        -0.79643
H         49.04626        29.98306        -1.29429
O         34.20858        40.14679        -0.30482
H         34.60223        39.38351        -0.79168
O         40.18648        31.04003        -1.00119
H         40.80258        31.59865        -1.53366
O         32.48933        37.21603         2.74355
H         32.71025        36.27741         2.96561
