         276
 CSIRO Nanostructure Databank - Neutral Graphene Oxide Data Set
C        -11.07255         0.62136        -0.47878
C         -9.78700         1.40112        -0.33205
C         -8.83716         0.63410         0.56424
C         -7.58293         1.36825         0.96923
C         -6.28156         0.73800         0.70562
C         -5.09198         1.58805         0.47548
C         -3.77134         0.86771         0.37034
C         -2.52184         1.55297         0.79732
C         -1.23596         0.72368         0.95574
C         -0.07803         1.55025         0.32378
C          1.24941         0.79012         0.22266
C          2.53128         1.51394         0.46541
C          3.79437         0.72337         0.13042
C          5.09934         1.47274         0.45403
C          6.31951         0.73361         0.90158
C          7.59717         1.46892         1.19098
C          8.88948         0.68325         1.03881
C         10.17349         1.50562         1.06223
C         11.38240         0.66137         0.68788
C         -9.93639         2.84821         0.13436
C         -8.93360         3.52792         0.73371
C         -7.66735         2.84370         1.12513
C         -6.39992         3.64000         1.32966
C         -5.08593         3.09921         0.78985
C         -3.84916         3.55259         1.70755
C         -2.53644         2.88743         1.12315
C         -1.23813         3.59684         1.36762
C          0.04283         2.88701         1.03690
C          1.29901         3.64026         0.78087
C          2.54001         2.85411         0.70415
C          3.80321         3.63754         1.03376
C          5.10103         2.92903         0.70647
C          6.36406         3.71255         0.98391
C          7.71823         3.01994         1.23946
C          8.84675         3.52888         0.34056
C          9.97559         2.78833         0.26181
C         -9.02246         4.97731         1.20047
C         -7.72173         5.71711         0.91036
C         -6.46805         5.13078         1.45499
C         -5.21143         6.00329         1.60202
C         -3.84409         5.16987         1.66694
C         -2.53449         5.85761         1.34253
C         -1.21237         5.10781         1.34615
C          0.06471         5.80737         0.94197
C          1.28742         4.99927         0.66940
C          2.56621         5.79470         0.52153
C          3.75105         4.91564         0.22836
C          4.99918         5.50372        -0.31033
C          6.30861         5.02604         0.27273
C          7.53642         5.73692        -0.16627
C          8.80560         4.90982        -0.34707
C         -7.65880         6.75167         0.05251
C         -6.45554         7.64667        -0.13802
C         -5.17143         7.19942         0.61398
C         -3.85264         7.73529         0.13538
C         -2.53804         7.22896         0.69817
C         -1.27221         7.88709         0.21681
C          0.11503         7.29710         0.53257
C          1.13185         7.60210        -0.56598
C          2.44548         6.88808        -0.51429
C          3.65157         7.52305        -1.01447
C          5.00350         6.88360        -0.93410
C          6.08008         7.77625        -0.24998
C          7.42394         7.06032        -0.43496
C         -6.15837         7.96875        -1.58995
C         -4.97536         8.49253        -1.98483
C         -3.79218         8.49746        -1.14184
C         -2.62788         9.10705        -1.53451
C         -1.35006         8.88877        -0.89572
C         -0.21549         9.50027        -1.38163
C          1.11706         8.97947        -1.13939
C          2.27237         9.56794        -1.56716
C          3.59263         8.83290        -1.73874
C          4.84450         9.64468        -1.42600
C          5.95537         9.16786        -0.84142
C        -11.14404        -0.71402        -0.36297
C        -10.02775        -1.67385         0.03797
C         -8.83338        -0.85576         0.59977
C         -7.49428        -1.46129         1.00678
C         -6.23777        -0.67186         0.66614
C         -5.06617        -1.35555         0.29922
C         -3.79684        -0.62436         0.16031
C         -2.51064        -1.39316         0.09841
C         -1.24294        -0.70707         0.43107
C         -0.08216        -1.41020         0.39297
C          1.23126        -0.70499         0.29904
C          2.48808        -1.43915         0.68402
C          3.77830        -0.69625         0.67584
C          5.06102        -1.47622         0.48737
C          6.34862        -0.73494         0.57828
C          7.58807        -1.27660        -0.05249
C          8.88197        -0.67755         0.41088
C         10.11930        -1.27622        -0.27248
C         11.36558        -0.61504         0.27245
C         -9.83258        -2.71948        -1.12302
C         -8.61176        -3.61003        -0.95534
C         -7.33654        -2.88007        -1.00939
C         -6.11273        -3.58696        -0.50196
C         -5.04652        -2.84521         0.23983
C         -3.77987        -3.61949         0.43509
C         -2.52928        -2.90239         0.06991
C         -1.25203        -3.67884        -0.08183
C         -0.01127        -2.83283        -0.04606
C          1.28453        -3.56195        -0.01717
C          2.53700        -2.97754         0.63198
C          3.70999        -3.50995        -0.23465
C          4.99941        -2.74612        -0.32034
C          6.27152        -3.42412        -0.74780
C          7.58834        -2.69622        -0.53848
C          8.83406        -3.45906        -0.26177
C         10.01135        -2.79832        -0.10868
C         -8.61050        -4.97270        -0.83679
C         -7.40193        -5.78420        -0.65702
C         -6.09872        -5.07756        -0.48462
C         -4.91281        -5.77955         0.09225
C         -3.75014        -5.11252         0.31242
C         -2.46334        -5.78146         0.81069
C         -1.22148        -5.10156         0.28554
C          0.09378        -5.77868         0.56828
C          1.20664        -5.08346        -0.24446
C          2.57846        -5.76849        -0.00981
C          3.71279        -4.94949        -0.62436
C          4.98746        -5.65625        -1.04403
C          6.35306        -4.91025        -1.14688
C          7.45063        -5.66045        -0.39183
C          8.63198        -4.89884         0.20684
C         -7.43463        -7.14711        -0.59707
C         -6.25251        -7.95235        -0.18217
C         -4.99585        -7.25171         0.22590
C         -3.69715        -8.01526         0.26614
C         -2.41848        -7.30065         0.56193
C         -1.12740        -7.98350         0.22570
C          0.09082        -7.27115         0.21619
C          1.29467        -7.94362        -0.08859
C          2.53357        -7.20399        -0.55853
C          3.86633        -7.89677        -0.26346
C          5.00545        -7.15632        -0.99642
C          6.37329        -7.84529        -1.04320
C          7.40731        -7.00697        -0.29076
C         -6.12755        -9.39423        -0.53528
C         -4.93930       -10.01553        -0.62583
C         -3.60940        -9.28555        -0.56472
C         -2.42835       -10.16586        -0.08827
C         -1.12742        -9.37312        -0.04886
C          0.08777       -10.03908        -0.26984
C          1.31344        -9.34264        -0.30744
C          2.58990       -10.01782        -0.56292
C          3.79493        -9.36784        -0.58645
C          5.10521       -10.00837        -0.61085
C          6.26649        -9.30809        -0.65273
O          6.17743         4.92659         1.75278
O         -0.40419         3.00033         2.42160
O         -3.97255         3.08750         2.95190
O         -6.51506         4.26921         2.63224
O          7.63553        -1.55731        -1.47772
O          5.87879        -1.57901         1.68581
O         -0.32753         5.67653         2.35304
O          4.71904        -6.46346        -2.23490
O          5.30210         2.41320        -0.65697
O         -4.60098        -3.27527         1.59278
O         -7.78824         1.96054         2.30094
O          1.37279         6.56400        -1.54918
O         -3.11304        -0.89398        -1.13660
O          0.87279        -2.87453        -1.22776
O         -1.90707         8.30297         1.47057
O         -4.43123         1.42062        -0.83230
O         -5.94260        -7.70071         1.25277
O         -7.42445        -2.53770         1.57430
O          8.97740        -0.52202         1.85968
O          3.26502        -3.93980        -1.56314
O          5.46274        -2.64905        -1.69134
O          4.14503         4.64293        -1.14814
O         -4.58485         8.38996         1.22931
O          3.08036        -0.91126         1.92651
O         -3.05190         5.77764         2.70735
O         -7.24425        -1.75479        -1.51175
O         -3.13781        -8.05994         1.61587
O         -2.11751        -3.38668        -1.25087
O          6.73352         1.01552         2.27686
O         -9.40084        -0.05654         1.70917
O         -5.63002        -4.33640        -1.68059
O          1.30615        -0.02057        -0.99924
O          0.63060         8.01466         1.68001
H         -0.11241         8.06907         2.32939
O          2.41037        -7.25411        -1.99146
H          1.69114        -6.62892        -2.25498
O         -9.76238        -2.05032        -2.37879
H         -8.88059        -1.60982        -2.43772
O         -6.89089         8.91987         0.40607
H         -6.11109         9.30749         0.87379
O          8.98468         4.74018        -1.75720
H          9.79758         4.21695        -1.91095
O         -2.43018        -5.60738         2.26683
H         -2.99053        -6.32942         2.64192
O         -5.40135         6.58722         2.89249
H         -4.51577         6.83423         3.24573
O         10.14096        -0.92961        -1.67368
H          9.30404        -1.26173        -2.08149
O          8.10509         3.34042         2.58295
H          7.47468         2.89552         3.18967
O          0.31921        -5.63473         1.99984
H         -0.55698        -5.74020         2.45216
O          4.18483        -7.85183         1.14668
H          4.87924        -8.52142         1.32193
O         -1.01746         0.50732         2.36258
H         -1.01904         1.38646         2.82202
O         -4.89855         3.81541        -0.44747
H         -4.51239         3.16669        -1.09364
O          5.79731         7.89023         1.15159
H          6.06938         7.06859         1.61644
O         -0.47210         1.89347        -1.02135
H         -0.17585         1.15747        -1.60791
O          3.64057         8.56303        -3.18415
H          2.92061         7.92705        -3.38507
O          2.62911        -3.43247         1.97859
H          3.06760        -2.72721         2.51026
O          5.47867         6.72450        -2.29485
H          4.92527         6.03049        -2.71547
O          2.88749        -5.81502         1.38337
H          2.08804        -6.05248         1.90623
O          6.84324        -7.87539        -2.41111
H          6.51037        -7.04644        -2.83711
O         -9.13366         1.44398        -1.63585
H         -9.79009         1.74289        -2.29912
O         -2.71961       -10.72975         1.19078
H         -2.83649        -9.98108         1.82068
O         10.40192         1.90282         2.43473
H         10.19992         1.12605         2.99900
O          3.80351         3.88993         2.44561
H          3.39260         4.77241         2.61348
O        -10.50872        -2.46399         1.14017
H        -10.52788        -1.88215         1.93188
O         -3.31784        -8.82602        -1.91140
H         -3.30203        -9.60042        -2.51164
O          8.39633        -4.83162         1.62485
H          9.11282        -4.30891         2.04042
O          3.80530         0.51731        -1.29611
H          4.04149         1.37437        -1.71993
O          2.85629         6.41039         1.80416
H          2.09474         7.00632         2.04381
O          0.77818        -5.28984        -1.60470
H          0.92063        -4.44070        -2.09426
O          6.75122        -4.91766        -2.53329
H          6.10487        -4.35843        -3.01913
O         -9.26035         4.97759         2.60737
H         -8.45145         4.62226         3.04697
H         12.31938        -1.14852         0.13420
H         12.34989         1.11164         0.96255
H         10.83087         3.16109        -0.32667
H          9.67567         5.50592         0.06012
H          8.29439         7.63568        -0.78730
H          6.81509         9.84418        -0.70517
H          4.83846        10.68466        -1.79013
H          2.21703        10.56816        -2.02569
H         -0.32451        10.30478        -2.12554
H         -2.62812         9.70450        -2.45945
H         -4.86203         8.88425        -3.00778
H         -7.00858         7.97783        -2.28906
H         -8.58697         7.12267        -0.41142
H         -9.87900         5.49388         0.69977
H        -10.87366         3.37336        -0.11450
H        -11.97894         1.18527        -0.75440
H        -12.11898        -1.20056        -0.52776
H        -10.75751        -3.34869        -1.12536
H         -9.57032        -5.51518        -0.84945
H         -8.38685        -7.67986        -0.75048
H         -7.05896        -9.96776        -0.66459
H         -4.90969       -11.09337        -0.85078
H         -2.31030       -11.02085        -0.80505
H          0.07477       -11.12352        -0.45798
H          2.56108       -11.10966        -0.70998
H          5.14476       -11.10484        -0.50425
H          7.21723        -9.86323        -0.61552
H          8.23595        -7.53226         0.21226
H          9.57824        -5.48299         0.01923
H         10.91660        -3.36433         0.16700
