         314
 CSIRO Nanostructure Databank - Neutral Graphene Oxide Data Set
C         30.51443        56.95165        -1.40075
C         30.38499        58.40627        -1.37809
C         29.38680        59.12226        -2.16929
C         30.66415        61.21564        -2.03572
C         29.50377        60.47088        -2.39252
C         32.47741        52.68744         0.05307
C         32.63856        54.12794        -0.19645
C         31.57373        54.85435        -0.64732
C         32.75174        57.00962        -0.37580
C         31.60084        56.29861        -0.79613
C         32.89394        58.40779        -0.80901
C         31.65977        59.20682        -1.01797
C         33.02374        61.27800        -1.27585
C         31.78315        60.60138        -1.47792
C         35.23292        48.46113         0.29486
C         34.82438        49.70911        -0.21817
C         33.65888        50.41967         0.10066
C         35.48754        52.88641        -0.31036
C         33.46250        51.78966        -0.27039
C         35.23854        54.15217         0.39554
C         33.86481        54.82920         0.33755
C         35.16665        57.14260         0.56519
C         33.86533        56.35044         0.33574
C         35.32060        58.53082         0.04240
C         34.18607        59.16608        -0.65104
C         35.38548        61.32890        -0.56345
C         34.16585        60.64175        -0.78783
C         37.80643        44.40130         0.85086
C         37.79558        45.75753         0.54605
C         36.60268        46.50975         0.50225
C         37.77809        48.58378        -0.26481
C         36.51287        47.86600         0.14322
C         37.88602        50.06955        -0.12748
C         36.79654        50.84675        -0.52467
C         37.89232        52.88842         0.28613
C         36.72393        52.23859        -0.24061
C         37.81712        54.26489         0.59110
C         36.49544        54.90918         0.76374
C         37.74574        57.13404         0.81344
C         36.45283        56.41696         0.88752
C         37.68937        58.60806         0.77420
C         36.47560        59.25702         0.22666
C         37.80168        61.35555        -0.17059
C         36.54843        60.66329        -0.15491
C         40.24551        40.14280         0.38029
C         40.24031        41.51285         0.73257
C         39.01955        42.23858         0.78519
C         40.27512        44.32383         0.99955
C         39.02835        43.63365         0.86530
C         40.25872        45.79353         0.85269
C         39.10322        46.30399        -0.00328
C         40.33267        48.59618         0.09243
C         39.09051        47.83405        -0.21917
C         40.34119        49.96923         0.30554
C         39.10674        50.72717         0.20495
C         40.29319        52.88094         0.71663
C         39.11008        52.15768         0.37610
C         40.22678        54.27550         0.91414
C         38.99791        54.98926         0.85522
C         40.21249        57.18239         0.81853
C         38.95147        56.45270         0.92225
C         40.21780        58.54807         0.54785
C         39.00632        59.36096         0.64601
C         40.27307        61.38080        -0.12973
C         39.01807        60.73635         0.08816
C         42.67170        36.24959        -1.42969
C         42.62134        37.44354        -0.62772
C         41.44975        38.11455        -0.35447
C         42.67526        40.09207         0.54329
C         41.44406        39.43197         0.23019
C         42.68619        41.44711         0.89307
C         41.48106        42.19207         0.97107
C         42.72816        44.34086         1.31694
C         41.48574        43.62438         1.15656
C         42.80873        45.73696         1.07582
C         41.56141        46.51484         0.83439
C         42.88859        48.58218         0.21429
C         41.60755        47.77655        -0.02275
C         42.80897        50.02930         0.52520
C         41.59810        50.69901         0.56587
C         42.72015        52.85420         1.04826
C         41.56145        52.14827         0.80268
C         42.72993        54.35857         0.93847
C         41.43434        55.01880         1.44538
C         42.66591        57.15286         0.94868
C         41.46310        56.48058         1.02105
C         42.73507        58.47258         0.31796
C         41.43506        59.21403         0.08608
C         42.75234        61.30414        -0.26101
C         41.48430        60.68699        -0.07837
C         45.11488        34.15663        -3.38162
C         43.85410        34.40650        -2.61554
C         45.13343        36.27791        -1.43610
C         43.85976        35.68462        -1.81544
C         45.15307        37.37971        -0.59742
C         43.89916        37.94212        -0.08457
C         45.23484        40.07141         0.57611
C         43.93966        39.33681         0.53965
C         45.24717        41.42218         0.96069
C         43.96288        42.06899         1.31165
C         45.27728        44.24187         1.67012
C         43.94726        43.56040         1.59770
C         45.27231        45.77345         1.48024
C         44.04275        46.41120         1.03056
C         45.33678        48.58375         1.05060
C         44.13513        47.82963         0.60860
C         45.32830        49.97883         1.09648
C         44.09974        50.73455         0.71880
C         45.21021        52.88503         1.65050
C         44.04151        52.20753         0.99139
C         45.27317        54.36219         1.54440
C         43.96382        55.05403         1.50987
C         45.22618        57.34998         1.44539
C         43.92853        56.54562         1.44452
C         45.17051        58.58847         0.57827
C         44.00072        59.23385         0.29722
C         45.22677        61.32801        -0.23027
C         43.98177        60.63114        -0.12719
C         46.27374        34.76858        -3.07874
C         47.57833        36.34007        -1.71273
C         46.36777        35.78190        -2.03250
C         47.70692        37.35939        -0.66932
C         46.41354        37.96316        -0.10310
C         47.69265        40.06010         0.45703
C         46.44864        39.37967         0.33304
C         47.72464        41.43546         0.81302
C         46.49098        42.14177         1.05341
C         47.80426        44.25723         1.62645
C         46.50616        43.51694         1.39134
C         47.75391        45.72584         1.22708
C         46.56710        46.44276         1.22904
C         47.79000        48.57939         1.26939
C         46.55854        47.87243         1.18392
C         47.76861        50.00375         1.43703
C         46.53200        50.67400         1.40534
C         47.76524        52.87170         1.87381
C         46.48032        52.10432         1.79731
C         47.75092        54.37943         1.74734
C         46.45315        55.07653         1.55165
C         47.69011        57.13868         1.03325
C         46.48457        56.50099         1.26822
C         47.71456        58.49020         0.42360
C         46.43494        59.22233         0.17013
C         47.72568        61.31278        -0.19581
C         46.45615        60.68032        -0.07550
C         48.92170        38.17831        -0.56732
C         50.26005        39.99794         0.41414
C         48.92709        39.37582         0.07707
C         50.22389        41.49656         0.53000
C         48.98410        42.16914         0.82939
C         50.22618        44.29067         0.87727
C         49.01735        43.54576         1.07644
C         50.21143        45.69919         0.87489
C         48.98998        46.43339         1.05953
C         50.27982        48.55275         1.25013
C         48.99479        47.84233         1.14925
C         50.30350        50.05376         1.39645
C         49.00736        50.76977         1.46385
C         50.18521        52.92189         1.10935
C         48.99947        52.14336         1.51213
C         50.22446        54.38553         1.28759
C         49.00764        55.08668         1.40492
C         50.18679        57.21064         1.06011
C         48.97014        56.47605         1.16847
C         50.14716        58.62050         0.78246
C         48.96118        59.26631         0.44500
C         50.22048        61.30600        -0.13870
C         48.93821        60.64824         0.05436
C         51.41284        42.18692         0.44540
C         52.67362        44.30936         0.41035
C         51.46237        43.60810         0.56567
C         52.71592        45.72209         0.39018
C         51.42242        46.41541         0.45735
C         52.75993        48.62537         0.68700
C         51.46844        47.93345         0.62133
C         52.74637        50.06475         0.83754
C         51.54326        50.74832         1.02872
C         52.73424        52.96501         0.83468
C         51.48278        52.19994         0.82936
C         52.70006        54.37714         0.92035
C         51.44864        55.07954         1.11588
C         52.67521        57.21346         1.12185
C         51.43875        56.50975         1.14323
C         52.65357        58.68214         1.23702
C         51.37487        59.42256         0.90481
C         52.72038        61.39984        -0.23613
C         51.41151        60.74256         0.22756
C         53.89158        46.48895         0.26665
C         55.25444        48.61468         0.28131
C         53.92146        47.90110         0.39011
C         55.16869        50.13163         0.26267
C         53.96079        50.81446         0.58132
C         55.13055        52.98415         0.33734
C         53.94588        52.24536         0.62399
C         55.12131        54.40957         0.40541
C         53.91426        55.11822         0.76905
C         55.12381        57.29325         0.64915
C         53.89995        56.53914         0.88988
C         55.16527        58.66640         0.71343
C         53.92180        59.40931         0.98145
C         55.33793        60.78573        -0.43158
C         53.98377        60.72041         0.26197
C         56.30475        50.86001        -0.07124
C         57.41247        53.03029        -0.55925
C         56.31220        52.28986        -0.07678
C         57.39222        54.44368        -0.56446
C         56.28800        55.11572         0.04065
C         57.34847        57.34839        -0.61188
C         56.33399        56.57117         0.20666
C         57.06991        58.78533        -0.94121
C         56.13584        59.52504        -0.01778
C         57.74441        61.54182        -0.30768
C         56.58938        60.98122         0.41191
C         58.38656        55.19864        -1.27406
C         59.26664        57.30882        -2.20145
C         58.32178        56.58384        -1.42729
C         59.30632        58.71213        -2.22435
C         58.17688        59.50221        -1.66450
C         59.57076        61.54762        -1.94027
C         58.43480        60.92264        -1.32548
C         60.38177        59.41480        -2.79971
C         60.47817        60.81572        -2.68894
O         51.17331        47.33699        -0.67515
O         34.16078        57.01135         1.61740
O         30.63642        58.98204        -0.03098
O         34.30951        54.14616         1.53737
O         38.30004        59.26342         1.93094
O         45.28939        45.16043         2.82367
O         44.37723        51.72512        -0.36461
O         57.56062        57.11271         0.81585
O         54.07551        60.67336         1.71768
O         43.90902        38.13828         1.37406
O         39.12759        45.60783        -1.22214
O         43.74083        55.84670         2.73910
O         36.37550        55.56226         2.06335
O         40.67449        46.60855         2.00075
O         56.90060        59.13149        -2.34209
O         47.88001        53.70646         3.06269
O         47.20220        37.00158         0.66592
O         51.88365        59.30739         2.29852
O         45.58651        52.32403         2.94910
O         43.87710        48.20679        -0.80492
O         42.09928        58.49874        -1.01264
O         38.44421        48.15650        -1.49374
O         35.71368        50.26977        -1.16472
O         42.69360        34.34209        -3.49784
O         50.51763        49.14427         2.56126
O         34.51171        52.33389        -1.08215
O         43.85449        42.57892         2.68537
O         33.85266        58.50001        -1.94353
O         50.57167        52.57766        -0.29044
O         47.08983        58.45703        -0.92787
O         45.36404        57.89975         2.79502
H         45.07033        57.19279         3.41585
O         41.62776        47.27886        -1.37655
H         41.70713        48.03350        -1.99548
O         42.77163        54.60455        -0.49945
H         43.32183        53.91019        -0.92298
O         52.76867        61.36864        -1.66652
H         51.93411        61.73812        -2.02083
O         56.10711        48.20760         1.37080
H         55.69126        48.49804         2.20849
O         42.89829        35.41401        -4.48363
H         42.15326        35.24626        -5.10979
O         47.98403        44.29526         3.08689
H         47.13681        44.63929         3.46015
O         41.31162        54.89861         2.87466
H         42.07684        55.36995         3.28423
O         56.54685        61.40669         1.72620
H         55.67550        61.15304         2.12120
O         51.27771        39.58033        -0.50146
H         51.09632        39.99082        -1.37141
H         29.71283        56.35299        -1.85796
H         28.55809        58.55365        -2.61557
H         30.71902        62.27659        -2.31867
H         28.71096        60.99018        -2.95001
H         31.53912        52.34172         0.51026
H         30.65054        54.32985        -0.93277
H         33.07003        62.35508        -1.49769
H         34.47943        47.86955         0.83793
H         32.93120        49.95768         0.78169
H         35.43188        62.40832        -0.77158
H         36.86857        43.89944         1.14051
H         35.66237        45.97729         0.71801
H         37.80190        62.39737        -0.52598
H         39.28964        39.64421         0.16216
H         38.06859        41.70219         0.65170
H         40.27562        62.45378        -0.37566
H         41.72597        35.79983        -1.76687
H         40.49365        37.70355        -0.71123
H         42.77230        62.38453        -0.47283
H         45.07256        33.40710        -4.18519
H         43.69096        33.54168        -1.91002
H         45.20819        62.40768        -0.44432
H         47.19308        34.52324        -3.63178
H         48.47975        36.05369        -2.27573
H         47.75665        62.37730        -0.47480
H         49.87511        37.76462        -0.93212
H         50.56041        39.58933         1.42124
H         50.21816        62.28681        -0.64305
H         52.34050        41.63119         0.24348
H         53.60338        43.73950         0.26295
H         52.72062        62.47690         0.10869
H         54.84841        45.96360         0.12799
H         55.76969        48.27132        -0.65457
H         55.35820        61.10600        -1.48642
H         57.22481        50.32577        -0.35096
H         58.28014        52.49972        -0.97827
H         58.09375        62.52506         0.04313
H         59.17396        54.64290        -1.80565
H         60.06317        56.74844        -2.71488
H         59.73111        62.62343        -1.77927
H         61.18561        58.85301        -3.29695
H         61.33752        61.32731        -3.14456
