         671
 CSIRO Nanostructure Databank - Neutral Graphene Oxide Data Set
C          5.86362        31.66041        -0.60475
C          5.86291        33.02378        -0.66830
C          8.34030        27.36136        -0.37408
C          8.30478        28.72027        -0.57711
C          7.09826        29.51823        -0.50758
C          8.33290        31.62170        -1.12790
C          7.07646        30.88156        -0.70846
C          8.32435        33.10324        -0.85018
C          7.08848        33.80282        -0.77180
C          8.29476        35.95458        -0.81347
C          7.08162        35.20174        -0.71480
C          8.29904        37.36065        -0.75989
C         10.93466        23.08510        -0.55840
C         10.84322        24.45352        -0.76385
C          9.61569        25.17672        -0.58498
C         10.79488        27.28732        -0.57985
C          9.57803        26.59032        -0.51713
C         10.80532        28.74880        -0.41482
C          9.58554        29.44702        -0.96602
C         10.86443        31.61959        -0.72923
C          9.54556        30.91819        -0.50184
C         10.86714        33.12855        -0.59314
C          9.53949        33.81482        -0.87916
C         10.81482        35.94172        -0.84379
C          9.52522        35.21514        -0.92271
C         10.81118        37.42690        -0.74928
C          9.52783        38.16629        -1.07287
C         10.74971        40.24840        -0.35863
C          9.54826        39.56835        -0.52405
C         10.79183        41.65219        -0.10828
C         13.19791        18.66787        -1.25092
C         13.24619        20.17932        -1.16103
C         12.19670        20.91208        -0.74646
C         13.14890        23.05276        -1.73848
C         12.28428        22.41695        -0.61642
C         13.25410        24.54277        -1.45808
C         12.06120        25.18056        -1.12215
C         13.31646        27.39623        -1.08201
C         12.00622        26.63402        -1.06741
C         13.39412        28.70158        -0.30256
C         12.08897        29.50364        -0.34364
C         13.33394        31.68985        -0.80225
C         12.06338        30.96110        -0.67618
C         13.33489        33.02848        -1.08410
C         12.01517        33.71499        -1.40628
C         13.35835        36.03161        -1.24844
C         12.07024        35.24921        -1.28693
C         13.40449        37.56987        -1.16983
C         12.07068        38.20572        -0.83795
C         13.27104        40.26186        -0.32420
C         12.02621        39.53751        -0.52337
C         13.25272        41.62942        -0.16226
C         12.00626        42.37652        -0.07827
C         13.23136        44.51923         0.32470
C         12.02227        43.77156         0.15057
C         13.27971        45.77907         0.88043
C         15.73801        14.80459         0.64397
C         15.75965        16.08135         0.07479
C         14.52617        16.77864        -0.26501
C         15.75852        18.72697        -1.15367
C         14.49600        18.03147        -0.79405
C         15.79187        20.19215        -1.32306
C         14.50497        20.85169        -1.60035
C         15.77679        23.05197        -1.69845
C         14.49844        22.33476        -1.85622
C         15.75645        24.54410        -1.96945
C         14.49153        25.25183        -1.53675
C         15.80329        27.32471        -1.11037
C         14.56120        26.61884        -1.23038
C         15.79621        28.77010        -0.88059
C         14.62349        29.47454        -0.70025
C         15.87632        31.62518        -0.78081
C         14.59500        30.94619        -0.38408
C         15.88251        33.07308        -1.07824
C         14.59974        33.80304        -1.28192
C         15.74739        35.92134        -0.58889
C         14.61796        35.28042        -1.04030
C         15.62547        37.23760         0.16674
C         14.53471        38.15740        -0.35120
C         15.61756        40.23426         0.63111
C         14.50462        39.49910        -0.11285
C         15.79561        41.65922         0.11611
C         14.53037        42.36703        -0.21622
C         15.78657        44.53644         0.20728
C         14.50374        43.85762        -0.05036
C         15.80925        45.78729         0.74600
C         14.57122        46.35890         1.40358
C         15.81486        48.52500         1.61978
C         14.62477        47.86248         1.51134
C         15.80654        49.97645         2.09066
C         18.15211        10.82579         2.34756
C         18.14774        12.12356         1.76371
C         16.93873        12.80588         1.51159
C         18.19591        14.76453         0.74577
C         16.93989        14.11179         0.96518
C         18.19943        16.08958         0.24869
C         17.01594        16.72944        -0.13079
C         18.27193        18.88235        -0.75979
C         17.06702        18.04322        -0.81201
C         18.25358        20.21583        -1.16759
C         16.98282        20.90131        -1.39245
C         18.24463        23.08281        -1.60059
C         16.97345        22.35875        -1.55959
C         18.24207        24.49766        -1.64409
C         17.03029        25.23780        -1.54734
C         18.30921        27.29400        -0.84101
C         17.02102        26.61810        -1.24988
C         18.26694        28.80494        -0.90680
C         17.07968        29.48002        -0.82599
C         18.32564        31.66211        -0.39494
C         17.04977        30.93620        -0.73545
C         18.28558        33.14128        -0.62676
C         17.12494        33.82838        -0.81349
C         18.22414        35.99673        -0.47742
C         17.04703        35.27491        -0.62507
C         18.25976        37.35854        -0.02035
C         16.95478        37.97671         0.38315
C         18.23317        40.19770         0.26895
C         16.93490        39.45674         0.61601
C         18.21767        41.66159         0.75754
C         16.96736        42.33885         0.21236
C         18.29947        44.50376         0.16374
C         17.03206        43.79674        -0.23544
C         18.27503        45.88313         0.43906
C         17.05484        46.53218         0.84276
C         18.35411        48.54066         1.48524
C         17.06426        47.83621         1.34239
C         18.35335        50.03198         1.71640
C         17.07083        50.76829         1.82522
C         18.28336        52.93318         1.79929
C         17.06775        52.13402         1.83405
C         18.27780        54.29933         1.88139
C         20.51774         7.09672         4.55731
C         20.52543         8.32424         3.85775
C         19.32725         8.94771         3.42770
C         20.62684        10.75129         2.37066
C         19.35322        10.16587         2.71950
C         20.62648        11.87447         1.36307
C         19.40144        12.75246         1.43220
C         20.70290        14.70525         0.61212
C         19.43289        14.06031         0.96220
C         20.72779        16.02064         0.21832
C         19.48181        16.82002         0.20500
C         20.80185        18.83532        -0.64715
C         19.50718        18.23726        -0.26994
C         20.76250        20.18151        -1.26636
C         19.49147        20.95406        -1.34164
C         20.75803        23.07383        -1.80352
C         19.48269        22.33230        -1.58057
C         20.77721        24.55983        -1.77224
C         19.48173        25.28123        -2.03470
C         20.68764        27.40955        -1.62747
C         19.53328        26.70562        -1.51172
C         20.66858        28.91503        -1.67019
C         19.60306        29.50821        -0.74918
C         20.73822        31.73194        -1.15566
C         19.55497        30.99866        -0.92834
C         20.75474        33.12866        -1.03093
C         19.58727        33.86037        -0.40322
C         20.74039        36.03907        -0.53075
C         19.49162        35.30939        -0.93024
C         20.73726        37.33661        -0.03823
C         19.46457        38.02437         0.17882
C         20.75565        40.20954         0.63290
C         19.44548        39.41585         0.81080
C         20.69488        41.65602         0.28526
C         19.51129        42.34729         0.31715
C         20.76582        44.47480         0.02170
C         19.51854        43.78177         0.12094
C         20.71157        45.94472        -0.10120
C         19.50790        46.63470         0.43254
C         20.91380        48.60046         1.09547
C         19.56747        47.91508         0.91911
C         20.82499        50.10939         1.16759
C         19.51146        50.83237         1.14522
C         20.78412        52.99348         1.39427
C         19.59680        52.18437         1.86537
C         20.73721        54.39842         1.44450
C         19.49934        55.09370         1.78931
C         20.71439        57.29630         1.50662
C         19.51196        56.45778         1.90661
C         20.76807        58.63560         2.17942
C         22.93576         4.65259         6.02338
C         21.73709         5.22880         5.64041
C         22.96506         7.16503         4.74008
C         21.71876         6.49067         4.97275
C         22.97507         8.42054         4.09665
C         21.78251         8.98037         3.60596
C         23.10975        10.76082         2.44259
C         21.81182        10.17920         2.80751
C         23.10429        11.93782         1.58728
C         21.93937        12.60816         1.27554
C         23.16885        14.67362         0.71410
C         21.96434        13.97233         0.77663
C         23.22812        16.06652         0.35465
C         21.99788        16.63495        -0.31878
C         23.24730        18.83547        -0.41746
C         21.97810        18.14657        -0.44309
C         23.21510        20.30816        -0.59513
C         22.08030        20.89953        -1.36800
C         23.29985        23.15107        -1.32696
C         22.09117        22.37316        -1.64043
C         23.19668        24.64196        -1.15848
C         21.95136        25.24459        -1.76742
C         23.24484        27.45277        -1.94074
C         21.94933        26.71339        -1.97574
C         23.26432        28.84658        -1.34795
C         21.98685        29.63168        -1.52109
C         23.23537        31.77407        -1.76381
C         21.98692        30.99058        -1.42075
C         23.27407        33.16954        -1.18182
C         21.98713        33.94899        -1.33699
C         23.26423        35.89428        -0.19001
C         21.95312        35.22025        -0.51338
C         23.22737        37.35068        -0.02549
C         22.00891        38.00575         0.16508
C         23.27622        40.19564         0.10733
C         22.02970        39.46342         0.39807
C         23.25164        41.70109         0.24445
C         21.94270        42.30737        -0.30064
C         23.23701        44.53350        -0.20865
C         21.98277        43.81534        -0.14249
C         23.26583        45.97418        -0.18197
C         21.97946        46.71625        -0.29224
C         23.22567        48.90447         0.10783
C         21.86957        48.23393        -0.05896
C         23.22272        50.23115         0.69713
C         21.99837        50.85377         1.04728
C         23.18230        53.03935         0.84059
C         21.98986        52.30864         1.13900
C         23.03089        54.43275         0.68193
C         21.91165        55.14844         1.13638
C         23.20375        57.06611         2.07239
C         22.02465        56.53346         1.54206
C         23.02217        58.15617         3.12161
C         21.87478        59.09850         2.82724
C         23.06280        60.92685         3.96606
C         21.92160        60.43239         3.36243
C         24.16470         5.28497         5.75340
C         25.44587         7.15506         4.75655
C         24.20379         6.53483         5.11825
C         25.50439         8.41068         4.16450
C         24.23768         9.24317         4.09940
C         25.57380        11.05100         2.90684
C         24.26983        10.29587         3.02338
C         25.62888        11.83371         1.62737
C         24.39655        12.47038         1.01155
C         25.67399        14.71842         0.75294
C         24.43016        14.00291         1.24055
C         25.68009        16.21044         0.98815
C         24.38853        16.82548         0.45101
C         25.63482        19.02675         0.26257
C         24.39515        18.22099         0.06792
C         25.72433        20.41733        -0.18878
C         24.46435        21.12204        -0.45537
C         25.70260        23.22189        -0.83529
C         24.49858        22.52090        -0.94678
C         25.73114        24.72741        -0.83467
C         24.49452        25.36512        -1.42495
C         25.75685        27.44567        -1.75206
C         24.51892        26.70346        -1.71915
C         25.77815        28.84786        -1.72415
C         24.53479        29.61469        -1.64945
C         25.75077        31.74256        -1.46452
C         24.52276        30.99301        -1.60258
C         25.72351        33.06054        -1.05486
C         24.46973        33.79191        -0.88533
C         25.69259        35.95187        -0.48773
C         24.51951        35.21503        -0.54183
C         25.69059        37.37638        -0.27879
C         24.47859        38.06101        -0.08764
C         25.74564        40.20876         0.17024
C         24.45527        39.50316         0.03836
C         25.76303        41.70392         0.02997
C         24.47352        42.33973        -0.45187
C         25.72391        44.51306        -0.21242
C         24.48120        43.84284        -0.25966
C         25.74170        45.95305        -0.02193
C         24.48561        46.64921        -0.06414
C         25.77807        48.76021         0.46405
C         24.53274        48.11993         0.02423
C         25.77340        50.16689         0.87897
C         24.48263        50.94973         0.90599
C         25.72896        53.08773         0.87828
C         24.47921        52.42099         0.80769
C         25.91200        54.45817         1.34806
C         24.83724        55.36577         1.17541
C         25.58059        56.84494         2.90869
C         24.50113        56.42819         2.04270
C         25.47983        58.09942         3.57806
C         24.30094        58.84749         3.54146
C         24.24271        60.15821         4.04846
C         26.73852         8.97219         3.74208
C         28.07806        10.71364         2.63377
C         26.83236        10.19130         3.05697
C         28.12878        11.83501         1.75302
C         26.84830        12.10213         1.11405
C         28.14919        14.76232         0.57025
C         26.84766        14.14806         0.36455
C         28.18204        16.13888         0.51902
C         26.87648        16.82528         0.22319
C         28.21799        18.99289         0.08729
C         26.95276        18.31685         0.43680
C         28.20008        20.35384        -0.20060
C         26.94467        21.05520        -0.30085
C         28.23026        23.26852        -0.58988
C         26.93533        22.53177        -0.44063
C         28.21586        24.64867        -1.12651
C         27.03112        25.30107        -1.33909
C         28.29332        27.41903        -1.69932
C         27.02710        26.65881        -1.99417
C         28.25439        28.84200        -1.70382
C         27.03243        29.54248        -1.73759
C         28.21172        31.59195        -0.94075
C         27.06285        31.06160        -1.79406
C         28.27034        33.10315        -0.96968
C         26.97974        33.76140        -0.69858
C         28.25016        36.00461        -0.59014
C         26.98825        35.24137        -0.45501
C         28.23099        37.38577        -0.45195
C         26.96775        38.09283        -0.25641
C         28.25267        40.22389         0.20991
C         26.98602        39.44476        -0.00175
C         28.16687        41.57845        -0.47929
C         27.02159        42.37809        -0.39536
C         28.18365        44.60281        -0.41959
C         26.97211        43.81746        -0.43515
C         28.21596        45.87530         0.37777
C         26.94982        46.66181         0.16589
C         28.25823        48.78633         0.61991
C         26.98841        48.07372         0.40815
C         28.28999        50.19460         0.79619
C         27.03614        50.91824         0.75446
C         28.66815        53.11678         1.67449
C         26.91828        52.29652         0.69114
C         28.19091        54.15349         2.49627
C         26.98290        54.88207         2.23391
C         26.77044        56.09026         2.95301
C         29.25846        12.64562         1.51498
C         30.53739        14.69344         0.99805
C         29.32585        13.98500         0.96367
C         30.64709        16.11172         0.73800
C         29.41198        16.86822         0.50689
C         30.76156        18.84503        -0.17486
C         29.42640        18.22241         0.17068
C         30.73593        20.35807        -0.19918
C         29.46892        21.00561        -0.70729
C         30.68237        23.19360        -0.72389
C         29.49977        22.51232        -0.63619
C         30.70638        24.61822        -1.04020
C         29.50212        25.30394        -1.29828
C         30.76175        27.42802        -1.44886
C         29.50206        26.72203        -1.51280
C         30.76307        28.81552        -1.55423
C         29.52233        29.55778        -1.58565
C         30.73354        31.62804        -1.00408
C         29.50169        30.91738        -1.32716
C         30.71893        33.11227        -0.77030
C         29.43206        33.82129        -0.88796
C         30.70553        35.93523        -0.89450
C         29.47917        35.27334        -0.79108
C         30.80310        37.37717        -0.47013
C         29.48436        38.13700        -0.43339
C         30.81993        40.24744        -0.00625
C         29.51153        39.47535        -0.16739
C         30.65365        41.64276        -0.67217
C         29.39753        42.04392        -1.03378
C         30.67152        44.69335        -0.64925
C         29.36249        44.17957        -0.98562
C         30.69592        46.03374        -0.13149
C         29.48464        46.67850         0.18301
C         30.75148        48.72836         0.67143
C         29.48600        48.05458         0.51122
C         30.72768        50.06972         1.13551
C         29.54497        50.82327         1.21076
C         29.59400        52.09206         1.90454
C         31.84536        16.80442         0.79669
C         33.15746        19.02168         0.51611
C         31.83872        18.32121         0.77627
C         33.17268        20.34569         0.17524
C         31.90255        21.04447        -0.10226
C         33.21207        23.07029        -0.82802
C         31.94436        22.55126        -0.18680
C         33.23532        24.53496        -1.15575
C         31.96359        25.30288        -1.13645
C         33.26890        27.39451        -1.22645
C         32.00348        26.69130        -1.30505
C         33.29740        28.80083        -1.26470
C         32.05104        29.53034        -1.57689
C         33.22675        31.73993        -0.93839
C         32.02583        31.01742        -1.38499
C         33.21924        33.11858        -0.86505
C         31.97388        33.84985        -0.96592
C         33.23889        35.88961        -1.52567
C         31.94407        35.22699        -1.08039
C         33.21145        37.41433        -1.51304
C         31.91536        38.15155        -1.16174
C         32.89641        40.40856        -1.29185
C         31.94922        39.57946        -0.78169
C         33.10256        41.77881        -0.75154
C         31.82269        42.48516        -1.21688
C         33.12934        44.58661        -0.65867
C         31.83984        43.94889        -0.81033
C         33.15147        45.95311        -0.29508
C         31.96759        46.69212         0.00116
C         31.96380        48.03398         0.44553
C         34.42096        21.09297         0.00010
C         35.75307        23.04540        -0.91376
C         34.46914        22.36971        -0.46792
C         35.72642        24.56299        -0.81553
C         34.51464        25.26400        -1.01472
C         35.71165        27.40807        -0.78582
C         34.49795        26.68278        -0.99702
C         35.69341        28.83054        -0.68855
C         34.46688        29.51165        -0.89850
C         35.67852        31.71154        -0.26986
C         34.39465        30.94384        -0.57164
C         35.67110        33.16938        -0.45420
C         34.45900        33.86398        -0.68762
C         35.67774        35.98126        -0.76709
C         34.46626        35.25845        -0.89523
C         35.69828        37.40994        -0.95621
C         34.53753        38.09246        -1.40759
C         35.76032        40.28408        -1.24075
C         34.67988        39.45571        -1.68739
C         35.61511        41.73119        -1.20535
C         34.40920        42.46208        -1.09681
C         34.35171        43.86517        -0.92700
C         36.91876        25.27742        -0.64423
C         38.15516        27.43473        -0.46899
C         36.94657        26.69755        -0.62555
C         38.16984        28.84046        -0.41700
C         36.92124        29.56352        -0.47005
C         38.15263        31.71162        -0.33184
C         36.93873        30.96896        -0.38171
C         38.13747        33.13320        -0.31575
C         36.90171        33.86460        -0.43289
C         38.13434        36.01513        -0.41745
C         36.89778        35.28551        -0.52124
C         38.11201        37.42235        -0.49138
C         36.91895        38.14860        -0.77013
C         36.91100        39.57725        -0.83819
C         39.38401        29.59011        -0.30110
C         40.61393        31.75600        -0.17925
C         39.39575        30.98523        -0.27743
C         40.59767        33.12143        -0.15306
C         39.36461        33.87228        -0.23766
C         39.34606        35.27200        -0.25975
O         10.87785        36.62106         0.47711
O         24.04028        55.15602         0.03306
O         25.77435        41.13500         1.36298
O         26.98647        34.29453         0.68809
O         28.05771        53.04532         0.39805
O         18.63423        49.14158         2.83414
O         32.25424        37.85874        -2.54455
O         12.66380        35.73461        -2.53283
O         19.47836        17.93766         1.19881
O         21.62036        39.91110         1.80833
O         22.59905        27.22511        -3.21931
O         21.16537        46.34609        -1.45461
O         23.47900        21.02065         0.66100
O         11.29034        29.22876         0.89942
O         21.60557        20.14157        -2.49846
O         17.02039        38.54441         1.74570
O         30.74944        32.16369         0.37442
O         26.91144        12.82187        -0.09782
O         23.97473        48.83904        -1.16454
O         34.82106        31.22784         0.81679
O         14.48090        21.37930        -2.98566
O         29.29848        43.14131        -1.92745
O         16.51026        18.00008        -2.18747
O         21.53192        22.64047        -2.98135
O         32.12785        30.47222        -2.73482
O         12.50456        27.38114        -2.27488
O         33.17703        23.47224        -2.23012
O         27.59844        23.16821         0.76364
O         15.36311        33.34446        -2.45798
O         26.26418        18.85322         1.60493
O         14.52080        43.24601        -1.40877
O         22.51419        35.11292         0.83574
O         20.21493        29.10806        -3.11149
O         33.65973        40.06872        -2.41755
O         25.10507        50.42158         2.18245
O         28.36329        40.49630         1.64970
H         27.48108        40.85888         1.93078
O         22.95881        24.80586         0.29276
H         23.84773        24.86441         0.73192
O         19.80972        33.87660         1.04544
H         20.72534        34.18967         1.22959
O         13.72198        38.02073        -2.52651
H         13.14623        37.50555        -3.13784
O         14.57595        31.02577         1.09114
H         14.44000        30.11210         1.44096
O         27.37540        31.43415        -3.17026
H         26.61873        31.17019        -3.73487
O         22.08455        16.18668        -1.72302
H         22.25939        15.22058        -1.71388
O         20.50047        11.20028         0.05005
H         19.66791        10.68136         0.07090
O         24.33473        12.19731        -0.40330
H         25.23404        12.36346        -0.77317
O         19.20920        51.07706        -0.26032
H         19.71968        50.43108        -0.80146
O         20.04238        29.26937         0.63192
H         19.50780        29.89975         1.18287
O         14.63492        45.89003         2.80778
H         15.47459        46.22487         3.18956
O         32.03624        23.04013         1.19105
H         31.27720        22.67582         1.69454
O         25.61248        11.98333         4.02834
H         25.18662        11.53122         4.79496
O         15.18301        40.37323         2.00636
H         15.69047        39.72332         2.54329
O         25.67736        25.08841         0.60685
H         26.37963        24.53945         1.04709
O         20.47334        57.59618         0.08357
H         20.46117        56.74192        -0.39866
O         28.21787        45.48819         1.79941
H         28.18663        46.31244         2.33024
O         33.37002        35.52150        -2.93918
H         32.82298        36.16723        -3.44353
O         12.98954        22.69938         0.63543
H         12.40503        22.44094         1.37841
O         31.26008        37.30511         0.91998
H         30.51932        36.97528         1.47118
O         18.13183        41.70279         2.19429
H         18.55068        40.87536         2.54750
O         18.45142        31.48706         1.08351
H         18.95399        32.27868         1.41092
O         18.48950        26.96451         0.57817
H         19.19639        27.57090         0.91522
O         26.58091        16.62076        -1.18993
H         27.39717        16.79072        -1.70515
O         23.09205        31.97531        -3.23807
H         22.46724        31.28906        -3.57211
O         11.70320        33.41163        -2.78153
H         12.31200        33.94600        -3.34045
O         24.47313        42.05813        -1.86996
H         23.55726        42.20957        -2.21298
O         20.42323        30.48028        -3.53052
H         19.50271        30.79572        -3.70642
O         31.41608        18.73501         2.11708
H         32.06872        18.38733         2.76003
O         21.49570        48.10393         2.32618
H         20.90723        48.39113         3.05952
O         29.46011        20.70428        -2.16561
H         30.16251        21.24881        -2.58443
O         19.82967        51.86977         3.26559
H         19.87805        52.71273         3.76280
O         33.11180        41.70758         0.68939
H         33.10565        42.62132         1.04295
O         19.33303        25.41800        -3.48942
H         20.14722        25.84472        -3.83549
O         27.95656        31.21771         0.43852
H         28.70608        31.56674         0.97304
O         12.98196        18.29131        -2.62202
H         13.75083        18.59743        -3.14790
O         14.66031        50.66218         1.58387
H         14.74054        50.72007         0.60998
O          9.76432        29.33970        -2.39003
H          9.15676        29.97507        -2.83853
O         31.80938        42.41487        -2.65990
H         30.95133        42.79327        -2.96068
O         21.95507        34.39000        -2.72972
H         22.23430        33.61013        -3.27434
O         11.14300        33.39467         0.80542
H         10.45512        32.93189         1.33341
O         35.93002        22.69897        -2.30379
H         35.09462        22.95197        -2.76253
O         31.08374        18.42078        -1.52627
H         30.48602        18.92366        -2.12781
O         15.75606        24.63974        -3.44164
H         16.64880        24.37873        -3.75799
O         23.33286        28.57508         0.09235
H         23.35148        29.43038         0.57138
O         13.64281        28.33098         1.09064
H         12.77310        28.40253         1.55825
O         25.79539        16.44507         2.40832
H         25.81130        17.42716         2.54535
O         15.15466        36.79453         1.47474
H         15.56865        37.38665         2.14602
O         21.85715        42.02196        -1.74052
H         21.09422        42.52692        -2.09638
O         24.21357         9.99012         5.38326
H         24.21210         9.32441         6.10466
O         19.27121        39.26444         2.23851
H         20.17603        39.14291         2.61786
O         17.09055        43.77739        -1.69785
H         16.16317        43.60603        -2.00850
O          9.28915        30.97547         0.92566
H          9.99140        30.43163         1.36222
O         12.43491        22.91156        -2.97583
H         12.93531        22.27022        -3.53327
O         19.41247        35.19492        -2.37567
H         19.52667        36.08604        -2.76531
O         24.39346        14.17211         2.67706
H         24.78385        15.05279         2.90163
O          9.56770        38.30053        -2.55283
H          8.79887        38.84698        -2.82102
O         21.25834        48.84517        -1.21698
H         21.82858        48.63774        -1.98961
O         22.60412        57.40639         4.32220
H         22.54828        58.05026         5.06007
O         27.04316        26.38610        -3.45124
H         27.10608        27.25043        -3.91085
O         18.36361        40.21589        -1.16961
H         17.77997        40.91861        -1.53085
O          8.40764        31.54597        -2.58770
H          7.65208        32.05421        -2.95107
O         23.32393        42.06005         1.63748
H         22.77910        41.40493         2.13638
O         31.08851        40.34250         1.39656
H         30.22749        40.49347         1.85370
H          4.91528        31.12341        -0.44878
H          4.91275        33.57160        -0.58183
H          7.40820        26.81335        -0.16348
H          6.15719        29.00461        -0.24964
H          6.12629        35.73682        -0.60649
H          7.33993        37.89087        -0.64896
H         10.05211        22.50758        -0.24226
H          8.68528        24.60491        -0.45085
H          8.59633        40.11451        -0.42745
H          9.84260        42.19821         0.00368
H         12.33431        18.27247        -0.66046
H         11.27031        20.40830        -0.42317
H         11.06402        44.28348         0.32887
H         12.34316        46.27179         1.18510
H         14.77235        14.30958         0.82628
H         13.57728        16.25670        -0.06434
H         13.69035        48.40852         1.71386
H         15.68103        49.94312         3.21069
H         17.18951        10.35566         2.59941
H         15.98169        12.30975         1.73157
H         16.10389        52.66172         1.91662
H         17.32049        54.84069         1.94471
H         19.55868         6.59970         4.76645
H         18.36020         8.47757         3.66099
H         18.57141        56.99364         2.10958
H         19.90389        59.30225         2.02985
H         22.93478         3.67738         6.53049
H         20.78571         4.71443         5.83816
H         23.06894        61.95480         4.35496
H         21.03688        61.07540         3.24554
H         25.10562         4.79194         6.03690
H         26.37709         6.58721         4.90889
H         26.37893        58.52280         4.05207
H         25.15267        60.60882         4.47150
H         27.65481         8.37923         3.89958
H         29.01005        10.24645         2.99062
H         28.75157        54.41250         3.40697
H         27.58077        56.44886         3.60568
H         30.19944        12.30066         1.97828
H         31.45414        14.15992         1.29567
H         31.67838        50.54727         1.41580
H         30.35684        52.20906         2.68961
H         32.78044        16.26999         1.03022
H         34.10267        18.49612         0.72726
H         34.12368        46.46209        -0.20548
H         32.91785        48.55966         0.60010
H         35.36061        20.55811         0.21193
H         36.63155        22.63740        -0.35417
H         36.55233        42.31122        -1.14724
H         35.28500        44.44977        -0.96544
H         37.86170        24.72477        -0.51486
H         39.10566        26.88504        -0.39415
H         39.05419        37.97872        -0.37217
H         37.82053        40.12498        -0.54953
H         40.33756        29.04298        -0.24492
H         41.57127        31.21667        -0.12434
H         41.54287        33.67981        -0.07988
H         40.29762        35.82151        -0.19321
