         276
 CSIRO Nanostructure Databank - Neutral Graphene Oxide Data Set
C        -11.02409         0.76011         0.73849
C        -10.03826         1.52850        -0.03715
C         -8.85809         0.72176        -0.61458
C         -7.64003         1.49349        -1.04890
C         -6.35787         0.71860        -1.24946
C         -5.05604         1.41558        -1.05529
C         -3.83787         0.52278        -0.80089
C         -2.61077         1.34988        -1.06428
C         -1.63200         0.73139        -1.76206
C          0.27298         1.74977        -1.57664
C          1.26565         0.84439        -1.33241
C          2.55288         1.59912        -1.02855
C          3.72006         0.81682        -1.58978
C          5.01038         1.55794        -1.61648
C          6.26325         0.87982        -1.20283
C          7.55819         1.58875        -1.28078
C          8.71334         0.87208        -0.97929
C         10.04199         1.58330        -0.71434
C         10.67153         1.10790         0.60557
C         -9.82829         2.97930         0.18602
C         -8.73130         3.68115        -0.20745
C         -7.58304         3.00221        -0.88086
C         -6.19344         3.70065        -0.88631
C         -5.15674         2.71335        -0.27278
C         -3.77825         3.34647         0.05955
C         -2.42498         2.64298        -0.26528
C         -1.28367         3.63885        -0.86171
C          0.16772         3.01261        -0.76041
C          1.38086         3.89786        -1.05430
C          2.44782         3.02428        -1.74299
C          3.80930         3.63828        -1.82485
C          4.97622         3.03499        -1.50470
C          6.25070         3.80102        -1.45450
C          7.55760         3.06252        -1.40147
C          8.76364         3.82182        -0.93499
C          9.90746         3.09368        -0.64817
C         -8.70535         5.18948         0.03825
C         -7.41573         5.92954        -0.42235
C         -6.22721         5.02563        -0.11435
C         -4.97264         5.61684         0.44707
C         -3.71316         4.77405         0.51505
C         -2.31437         5.38436         0.81230
C         -1.20318         5.01177        -0.16151
C          0.11804         5.70662         0.05822
C          1.40864         5.14624        -0.52096
C          2.51262         6.21826        -0.65748
C          3.87434         5.71982        -1.06188
C          5.04967         5.87705        -0.40702
C          6.32612         5.10857        -0.66736
C          7.45046         6.02468        -1.23165
C          8.74622         5.24812        -1.01514
C         -7.29976         7.28080         0.27444
C         -6.11522         7.85794         0.60983
C         -4.82214         7.13148         0.31972
C         -3.63055         7.68505         1.08285
C         -2.37448         6.88850         1.09517
C         -1.07392         7.64331         1.08932
C          0.14267         6.75914         1.21610
C          1.46752         7.51040         1.33274
C          2.66596         7.01330         0.61756
C          3.96659         7.73565         0.87442
C          5.21630         6.99977         0.55771
C          6.60128         7.65289         0.68228
C          7.54230         7.28998        -0.43764
C         -6.00813         9.21948         1.11458
C         -4.82574         9.83341         1.40631
C         -3.54145         9.15550         1.34261
C         -2.36593         9.72907         1.74914
C         -1.04314         9.05311         1.57994
C          0.19653         9.45829         2.40580
C          1.51580         8.91286         1.85077
C          2.65199         9.65771         1.77338
C          3.89425         9.23081         0.97529
C          5.27646         9.77206         1.30755
C          6.43006         9.13727         1.00861
C        -11.04094        -0.60186         0.69712
C         -9.91969        -1.38218         0.20245
C         -8.77926        -0.69444        -0.24028
C         -7.48227        -1.39482        -0.23306
C         -6.28514        -0.72864        -0.82107
C         -5.14012        -1.55075        -1.35357
C         -3.90020        -0.77921        -1.65231
C         -2.62849        -1.54132        -1.93157
C         -1.38904        -0.73551        -1.89432
C         -0.17108        -1.34500        -1.16945
C          1.18946        -0.61691        -1.35409
C          2.35168        -1.29826        -1.07980
C          3.66352        -0.67749        -1.40894
C          4.95333        -1.38410        -1.18823
C          6.20663        -0.59080        -0.93993
C          7.48138        -1.34199        -0.91482
C          8.67009        -0.54853        -0.92939
C         10.25868        -1.35756         0.48132
C         10.78966        -0.15094         1.09529
C         -9.91453        -2.81268         0.29540
C         -8.76591        -3.59588         0.05378
C         -7.46077        -2.88606        -0.04937
C         -6.20057        -3.64557        -0.34729
C         -4.89656        -2.94593        -0.76880
C         -3.90240        -3.78252        -1.60171
C         -2.58724        -3.06369        -1.94730
C         -1.24552        -3.65394        -1.54073
C         -0.12307        -2.89486        -1.35331
C          1.29133        -3.51715        -1.32359
C          2.25596        -2.67660        -0.44807
C          3.61956        -3.33152        -0.19574
C          4.93826        -2.71755        -0.51519
C          6.19231        -3.57985        -0.69565
C          7.44894        -2.72432        -0.74913
C          9.10991        -3.55761         0.60361
C         10.00290        -2.53916         1.12764
C         -8.74127        -4.99666         0.11711
C         -7.54528        -5.78010        -0.06038
C         -6.32094        -5.11224        -0.60271
C         -5.05934        -5.88388        -0.85423
C         -3.75023        -5.17955        -1.05157
C         -2.53912        -5.79253        -0.95297
C         -1.27319        -5.20179        -1.62383
C          0.05836        -5.85573        -1.19278
C          1.30352        -5.03287        -1.01785
C          2.42198        -5.63160        -0.18327
C          3.60002        -4.77788         0.18688
C          4.92130        -5.39044         0.57490
C          6.21333        -4.72984         0.29272
C          7.37725        -5.35215         0.87219
C          8.55062        -4.56823         1.31932
C         -7.52219        -7.12901         0.17729
C         -6.30437        -8.01840         0.07868
C         -5.05352        -7.34426        -0.52034
C         -3.73350        -7.98251        -0.25141
C         -2.47963        -7.14468        -0.31460
C         -1.18993        -7.87288        -0.15052
C          0.07193        -7.29675        -0.70320
C          1.35456        -7.95663        -0.27329
C          2.57538        -7.11859        -0.09654
C          3.71764        -7.67866         0.39405
C          4.92594        -6.89414         0.74532
C          6.26612        -7.61393         0.66728
C          7.36235        -6.70733         1.15501
C         -5.96187        -8.56761         1.45915
C         -4.77288        -9.12753         1.70924
C         -3.73475        -9.26523         0.61125
C         -2.37045        -9.59857         1.12456
C         -1.22922        -9.37246         0.17817
C          0.09076        -9.82809         0.75492
C          1.26806        -9.20594         0.54840
C          2.53934        -9.79968         1.11225
C          3.83406        -9.18522         0.53546
C          5.01118        -9.60395         1.40128
C          6.14658        -8.89826         1.45786
O          4.40825        -2.61156         0.83608
O          0.80089        -8.16043        -1.61668
O         -4.38151        -8.14847        -1.54582
O          2.52420        -5.02750         1.14886
O         -5.99759         5.05002         1.32735
O          4.30199         1.17972        -2.87165
O         -4.86903        -1.10833        -2.70468
O          4.66079         6.97336         1.91790
O         -7.91503         2.39822        -2.16264
O          4.83173        -6.02639         1.90420
O         -4.23168        -3.86559        -3.03075
O         -0.72869         1.50324        -2.48151
O          9.90149        -1.22550        -0.87870
O         -0.80717         6.09894        -1.03054
O         -1.88726        -1.15792        -3.17496
O         -6.45795        -0.75780         0.63237
O         -0.86091         8.72922         0.14903
O          1.06314        -5.74993        -2.26216
O          7.04112         3.65342        -2.67223
O         -2.86234        -3.43293        -3.37922
O          6.07124         0.33221         0.18592
O         -3.20095         7.01208         2.31568
O          4.38735        -1.36322        -2.51601
O         -1.74334        -7.09411         0.96670
O         -5.99246        -5.53818        -1.95280
O         -6.55565        -3.31941         1.03044
O          8.65985        -3.41137        -0.74367
O         -5.60519         1.25867        -2.37972
O          3.83027         4.97241        -2.24514
O         -3.86674         3.69044         1.47553
O          2.33130         6.43639         1.90756
O        -10.00996         1.07999        -1.43046
O         -1.89858         4.75064         2.04423
H         -2.41590         5.16969         2.76975
O          2.60019       -11.21007         0.84409
H          1.75526       -11.49887         0.44148
O         -1.44845        -5.57344        -3.00435
H         -0.56373        -5.59433        -3.43142
O         -0.53439        -1.12158         0.21831
H          0.15365        -1.57518         0.77274
O          0.00176         8.90686         3.71771
H         -0.02757         7.92449         3.63166
O          6.04865        -4.18384        -2.02624
H          6.85760        -4.71024        -2.20562
O          1.65246        -2.53464         0.86249
H          2.37679        -2.37040         1.50729
O         -5.76019         2.27328         0.96490
H         -5.56955         2.96473         1.64615
O          7.19528         7.08401         1.90881
H          6.47172         7.09898         2.58156
O         -1.47793       -10.14552        -1.02601
H         -2.44580       -10.35038        -1.06934
O         -9.79548         5.80431        -0.66445
H        -10.51363         5.14848        -0.78019
O         -0.00755         6.13871         2.51293
H          0.83229         5.66234         2.71063
O         -7.48293         6.16862        -1.83431
H         -8.43544         6.30328        -2.04722
O         -1.65521         3.87491        -2.21154
H         -1.24487         4.72179        -2.49852
O         -6.63118        -9.16112        -0.75855
H         -6.63708        -8.84832        -1.68905
O         -5.81610         4.02360        -2.22235
H         -6.17062         3.30824        -2.80456
O          6.74809         4.65146         0.64817
H          6.96868         5.43481         1.21802
O         -4.15168       -10.37405        -0.24890
H         -5.04258       -10.11892        -0.61311
O         -4.15073        -2.70714         0.44494
H         -4.73372        -2.19205         1.05310
O         10.97334         1.25935        -1.77467
H         11.03002         0.27799        -1.81569
O          2.05004         7.14747        -1.66160
H          2.12631         6.70866        -2.53571
O          3.62147         9.68834        -0.38366
H          3.54488        10.66505        -0.37346
O          0.41242         2.67718         0.63459
H         -0.30573         2.06429         0.94615
O          4.05464        -9.72584        -0.78912
H          3.76471       -10.66707        -0.74380
O          7.21217         6.34295        -2.61915
H          7.27135         5.50117        -3.12988
O          1.95876         2.81544        -3.08242
H          2.60488         2.23261        -3.54618
O         -2.00279         2.13145         1.02786
H         -2.16721         2.86226         1.68765
O         -3.85892         0.06110         0.56372
H         -3.33661         0.69404         1.11002
O         -4.49495         7.35861        -1.07884
H         -5.28138         7.12926        -1.62385
O          1.81784        -3.36093        -2.65437
H          1.44407        -4.07906        -3.21442
O          2.86450         1.75269         0.35780
H          2.05933         2.11565         0.81010
O          6.51724        -7.95791        -0.72493
H          5.84617        -8.63321        -0.98499
H         11.26938        -0.27775         2.07957
H         11.11275         1.90968         1.22067
H         10.82026         3.64007        -0.36137
H          9.65819         5.79494        -0.72782
H          8.32198         8.01510        -0.71918
H          7.37320         9.68045         1.18650
H          5.33260        10.82377         1.63669
H          2.61523        10.70733         2.11362
H          0.25569        10.57005         2.51353
H         -2.36578        10.77650         2.09101
H         -4.83374        10.88318         1.73668
H         -6.94537         9.78632         1.22419
H         -8.23443         7.84701         0.41599
H         -8.83411         5.36737         1.14625
H        -10.62877         3.51120         0.72901
H        -11.79399         1.30718         1.30322
H        -11.84911        -1.14767         1.20665
H        -10.85685        -3.32029         0.55037
H         -9.67452        -5.53497         0.34228
H         -8.44140        -7.62347         0.52801
H         -6.73025        -8.50950         2.24491
H         -4.54896        -9.54467         2.70293
H         -2.29275       -10.39605         1.88163
H          0.06976       -10.75895         1.34595
H          2.54719        -9.64516         2.23052
H          4.92198       -10.56182         1.93647
H          7.00343        -9.24835         2.05438
H          8.24190        -7.16314         1.63459
H          8.94044        -4.80159         2.32155
H         10.30569        -2.63795         2.18008
