         276
 CSIRO Nanostructure Databank - Neutral Graphene Oxide Data Set
C        -11.29969         0.64652         0.75064
C        -10.15542         1.44730         0.17015
C         -8.86651         0.62505         0.27858
C         -7.57152         1.37027         0.19313
C         -6.26852         0.69262        -0.14995
C         -4.96590         1.44140        -0.23340
C         -3.76088         0.80474        -0.84526
C         -2.55503         1.49726        -0.93332
C         -1.35812         0.87270        -1.64711
C          0.03075         1.41651        -1.43033
C          1.35029         0.66914        -1.51727
C          2.66215         1.45258        -1.45480
C          3.84422         0.74719        -0.80575
C          5.03150         1.41935        -0.84242
C          6.32985         0.69268        -0.90170
C          7.61423         1.53495        -0.88842
C          8.85478         0.70323        -0.58446
C          9.98916         1.31929         0.28564
C         10.90726         0.56094         1.19471
C         -9.95924         2.81220         0.78020
C         -8.81007         3.55157         0.50696
C         -7.63438         2.84403        -0.09256
C         -6.36262         3.58210        -0.38437
C         -5.00461         2.95837        -0.02950
C         -3.84210         3.64557        -0.73161
C         -2.53886         2.92230        -0.77345
C         -1.33673         3.66136        -0.93556
C         -0.14003         2.92853        -1.55980
C          1.17311         3.59481        -1.11788
C          2.45539         2.83893        -0.88191
C          3.75828         3.54383        -0.46382
C          5.04822         2.92539        -1.05656
C          6.25009         3.59589        -0.39133
C          7.36268         2.69913         0.12384
C          8.68926         3.48419         0.39135
C          9.81894         2.72420         0.68155
C         -8.65882         4.88424         0.94077
C         -7.58787         5.73776         0.42460
C         -6.42969         5.08411        -0.33311
C         -5.16915         5.88478        -0.56977
C         -3.89851         5.13020        -0.91040
C         -2.59708         5.93192        -1.00944
C         -1.34375         5.06317        -0.89472
C         -0.07771         5.82891        -0.94138
C          1.22119         5.09311        -0.99211
C          2.38160         5.67540        -0.17788
C          3.71194         5.07097        -0.71325
C          4.94796         5.67904        -0.06531
C          6.23359         4.93018        -0.12348
C          7.42626         5.63867         0.36388
C          8.63402         4.87080         0.51511
C         -7.34318         7.06845         1.00291
C         -6.22220         7.81195         0.75722
C         -5.13633         7.33494        -0.14451
C         -3.80222         8.09813        -0.21512
C         -2.62145         7.10569         0.02499
C         -1.29222         7.87087         0.08289
C         -0.03740         7.20998        -0.34114
C          1.21711         8.04690        -0.63894
C          2.40763         7.22137        -0.14553
C          3.69514         7.92879         0.08993
C          4.96112         7.13147         0.22964
C          6.27363         7.88169         0.13206
C          7.42597         7.00587         0.56915
C         -6.01673         9.05562         1.47809
C         -4.83425         9.72251         1.48238
C         -3.67300         9.26702         0.74568
C         -2.48088         9.91560         0.81849
C         -1.28310         9.40817         0.05471
C          0.03529         9.95100         0.53531
C          1.23553         9.38524         0.10975
C          2.46508        10.02864         0.32741
C          3.78591         9.43285        -0.11314
C          4.98631         9.94394         0.67836
C          6.11969         9.23177         0.80638
C        -11.30099        -0.70433         0.82303
C        -10.16332        -1.57026         0.52343
C         -8.99201        -0.83922        -0.15814
C         -7.59075        -1.50332        -0.24856
C         -6.32751        -0.73725        -0.56571
C         -4.99600        -1.45431        -0.64765
C         -3.76562        -0.67725        -0.98360
C         -2.40959        -1.31170        -0.80830
C         -1.35539        -0.70499        -1.75953
C          0.04242        -1.48617        -1.55074
C          1.45646        -0.85135        -1.53997
C          2.37564        -1.37877        -0.39870
C          3.75325        -0.68735        -0.41006
C          5.03205        -1.47204        -0.34211
C          6.32899        -0.78052        -0.65518
C          7.59561        -1.47132        -0.28215
C          8.74811        -0.77247        -0.50962
C         10.32899        -1.80472         0.72530
C         11.03644        -0.76327         1.45794
C        -10.33899        -2.93420         0.56156
C         -9.20199        -3.84965         0.66297
C         -7.29228        -2.78436         0.41424
C         -6.17943        -3.54101         0.20889
C         -4.90303        -2.80493        -0.01161
C         -3.58072        -3.46207         0.20477
C         -2.33083        -2.68681        -0.19534
C         -1.03812        -3.47983        -0.15809
C          0.05970        -2.89356        -1.03670
C          1.35936        -3.57759        -0.74326
C          2.48985        -2.90051        -0.46874
C          3.75830        -3.62681        -0.03629
C          5.03066        -2.97574        -0.61921
C          6.26291        -3.65843        -0.03080
C          7.54625        -2.90846         0.12868
C          8.85259        -3.73361         0.24589
C          9.84031        -2.99465         1.13560
C         -8.81417        -5.08091         0.24882
C         -7.53589        -5.70975         0.85340
C         -6.17142        -4.92260         0.76307
C         -4.84650        -5.65262         0.72855
C         -3.57221        -4.96250         0.28392
C         -2.42285        -5.66482         0.02084
C         -1.16998        -4.98184        -0.31200
C         -0.00897        -5.67693        -0.48296
C          1.29563        -5.06134        -0.94472
C          2.58271        -5.77586        -0.58455
C          3.74203        -5.11062        -0.37855
C          5.02543        -5.93371        -0.53775
C          6.39830        -5.14912        -0.43815
C          7.45482        -5.82207         0.44280
C          8.55850        -5.11160         0.78946
C         -7.36796        -7.11997         0.33094
C         -6.20176        -7.80613         0.35645
C         -4.87710        -7.18829         0.78040
C         -3.75405        -7.80985        -0.06915
C         -2.39943        -7.17856         0.26125
C         -1.25147        -7.94250        -0.39445
C         -0.00470        -7.16280        -0.48625
C          1.29256        -7.55424         0.17169
C          2.55484        -7.30755        -0.63602
C          3.68360        -7.98561         0.12972
C          4.94047        -7.20298         0.31609
C          6.16872        -7.91400         0.72656
C          7.33883        -7.21795         0.82111
C         -6.17445        -9.24699         0.14169
C         -5.02046        -9.96313         0.14886
C         -3.71750        -9.31533         0.12645
C         -2.56259       -10.02475         0.18406
C         -1.19022        -9.48578        -0.16491
C         -0.09833        -9.84090         0.85015
C          1.18615        -9.97639         0.53178
C          2.45586       -10.32515         0.40318
C          3.73778        -9.51822         0.10317
C          4.89039       -10.01349         0.95115
C          6.01284        -9.29264         1.16577
O         -7.53781         5.63409        -1.05883
O          1.32185        -5.25858        -2.48438
O          4.81695         6.17934         1.32010
O          0.74377         5.76317        -2.17164
O         -2.09704        -1.44780         0.59354
O          4.42805        -0.98934         0.87877
O          6.36664        -0.25462        -2.03555
O         -5.34909         0.75170         1.01010
O          6.95799         2.17968         1.31669
O          6.63505        -3.20074         1.28571
O          6.94433        -5.03649        -1.74305
O         -7.13081        -1.29291        -1.63642
O         10.08395         1.15370        -1.18267
O         -5.50515         6.95890        -1.50547
O         -0.69241         2.88588        -2.96303
O         -8.18254        -3.18601         1.39729
O         -1.56079         1.60240        -2.99338
O         -4.13443         4.23593        -2.04606
O          9.98998        -1.38667        -0.57922
O          1.32666        -7.52077         1.39034
O         -4.53541        -1.33330        -2.03873
O          1.46457         2.92953         0.17303
O         -7.17302         3.05594        -1.47036
O          2.77829         7.66299         1.20241
O         -4.23599        -2.77377         1.31167
O          0.69703         1.03536        -2.72666
O         -0.05894        -2.63432        -2.45915
O         -0.68838        -7.63528        -1.72117
O         -5.37743        -5.08835         1.98787
O         -0.40160         7.27847         1.08141
O         -8.10637         0.92140         1.48193
O          3.92884        -7.28193         1.37484
O          7.75618         2.13818        -2.19190
H          7.95347         1.41653        -2.82860
O          2.45052        -7.78468        -1.98379
H          3.16226        -7.32040        -2.48798
O          2.11158        -1.16216        -2.78141
H          1.66045        -1.95815        -3.15453
O         -2.51937         6.50845        -2.32896
H         -2.64602         5.77703        -2.97376
O          9.38018        -3.90045        -1.08082
H          8.67428        -4.38500        -1.59099
O          6.48299         8.12164        -1.29268
H          7.23550         8.74003        -1.39607
O         -1.81669        -1.01990        -3.06506
H         -1.28147        -0.51372        -3.71318
O          2.14010         5.24701         1.16900
H          2.66374         5.85279         1.75193
O          4.94571        -6.44800        -1.89750
H          5.76018        -6.08556        -2.35521
O          4.07208        -9.87568        -1.26663
H          3.42337        -9.41035        -1.84923
O         -4.07225        -7.50882        -1.44532
H         -3.43999        -7.98942        -2.02052
O          3.72295         5.38476        -2.10981
H          4.30856         4.74056        -2.58250
O         -4.66940        -7.57751         2.16166
H         -5.13395        -6.90528         2.71347
O          1.72451        -1.00863         0.83258
H          2.33645        -1.25531         1.56295
O         -2.86513         6.51626         1.31220
H         -1.98713         6.41299         1.75352
O         -0.01365        -5.19741        -3.00811
H         -0.32123        -6.14072        -2.95682
O         -0.51489        -3.35448         1.19251
H         -0.71688        -2.44663         1.51502
O          3.98416         9.71688        -1.51589
H          3.96468        10.68674        -1.64641
O          3.91340         3.30917         0.93899
H          3.08960         3.62239         1.38527
O          3.79423        -3.53183         1.40629
H          4.69310        -3.26915         1.70722
O         -9.51904        -0.78487        -1.51905
H         -8.75433        -0.84645        -2.14405
O         -7.83330        -5.85186         2.26741
H         -7.03428        -5.57039         2.76938
O          5.17539         3.20640        -2.46974
H          6.05554         2.85028        -2.74966
O          3.06582         1.64608        -2.83028
H          2.91828         0.79687        -3.30484
O          5.07079        -3.16451        -2.03790
H          5.77416        -3.85094        -2.24110
O         -4.82337         3.23660         1.37767
H         -5.02976         2.40460         1.87063
O         -2.08648        -7.37678         1.65856
H         -2.93132        -7.36532         2.17772
O          1.31849         8.31569        -2.03596
H          0.53468         8.84742        -2.29782
O         -0.87181       -10.12201        -1.41511
H         -0.40163        -9.45964        -1.97398
O         -1.33258         9.81070        -1.34745
H         -2.22538         9.54045        -1.69617
O        -10.45838         1.68426        -1.22939
H        -10.41706         0.80412        -1.68050
O         -3.71674         8.68028        -1.52838
H         -4.15921         8.05225        -2.15326
H         11.69373        -1.06202         2.28931
H         11.48418         1.23531         1.85057
H         10.55166         3.13111         1.39989
H          9.58699         5.42567         0.56116
H          8.34893         7.49245         0.92596
H          6.96788         9.64445         1.37652
H          4.91094        10.93745         1.15037
H          2.46117        11.02524         0.80106
H          0.04921        10.90333         1.08977
H         -2.37192        10.79841         1.46825
H         -4.72805        10.64048         2.07923
H         -6.85793         9.43385         2.07744
H         -8.07729         7.44285         1.73335
H         -9.45103         5.34199         1.55292
H        -10.80242         3.29820         1.29522
H        -12.21210         1.19691         1.02767
H        -12.20638        -1.20999         1.19580
H        -11.34751        -3.32193         0.78549
H         -9.47867        -5.72387        -0.34627
H         -8.29273        -7.66727         0.08531
H         -7.14192        -9.76456         0.05598
H         -5.05192       -11.06140         0.08846
H         -2.62540       -11.11846         0.30300
H         -0.36526        -9.75952         1.91963
H          2.65102       -11.41380         0.31787
H          4.83813       -11.04971         1.31928
H          6.85496        -9.74674         1.71146
H          8.24567        -7.71655         1.19816
H          9.33680        -5.59596         1.40070
H         10.03535        -3.36443         2.15197
