         667
 CSIRO Nanostructure Databank - Neutral Graphene Oxide Data Set
C          5.90072        31.81667        -0.00669
C          5.91543        33.16535         0.20705
C          8.39421        27.51965        -0.38099
C          8.38161        28.94324        -0.35554
C          7.14416        29.68930        -0.35465
C          8.36007        31.81057        -0.16703
C          7.12718        31.07596        -0.18926
C          8.38952        33.17540         0.10383
C          7.15426        33.89907         0.29501
C          8.43862        35.96403         0.66040
C          7.19754        35.27354         0.50113
C          8.48344        37.36392         0.74818
C         10.78220        23.05961        -0.58328
C         10.77977        24.53455        -0.24726
C          9.47383        25.26841        -0.60720
C         10.83017        27.42462        -0.33390
C          9.60313        26.77720        -0.42602
C         10.87604        28.90019        -0.02786
C          9.60267        29.63227        -0.31420
C         10.87801        31.82006        -0.32146
C          9.59619        31.10068        -0.63828
C         10.88565        33.14375         0.01359
C          9.64703        33.87732         0.25480
C         10.94957        35.79757         1.21949
C          9.67022        35.21416         0.63440
C         10.86851        37.36088         1.57309
C          9.69535        38.08134         0.93709
C         10.88449        40.25739         0.90647
C          9.68817        39.47271         0.86300
C         10.84003        41.66418         0.75339
C         13.25187        18.84121        -0.14903
C         13.23867        20.18097        -0.49282
C         11.94060        20.86579        -0.88947
C         13.21110        23.11134        -0.89331
C         11.94246        22.38371        -0.76514
C         13.26215        24.47806        -0.90563
C         11.98420        25.28478        -0.87785
C         13.34616        27.43092        -0.73149
C         12.13797        26.66707        -0.21888
C         13.31009        28.89332        -0.61543
C         12.12748        29.59624        -0.51064
C         13.39456        31.77017        -0.28257
C         12.13260        31.09800        -0.75404
C         13.39312        33.10791        -0.00712
C         12.15046        33.95180        -0.17922
C         13.35857        36.02352         0.55308
C         12.18637        35.31246         0.50685
C         13.41092        37.45257         0.77506
C         12.26941        38.17090         1.45295
C         13.31421        40.31549         0.59238
C         12.14494        39.59491         0.94758
C         13.26460        41.72451         0.36002
C         12.00595        42.41723         0.53571
C         13.14979        44.56995         0.17807
C         11.99888        43.83558         0.50423
C         13.20090        45.95231         0.33726
C         15.74348        14.66153         0.65051
C         15.69299        15.98539         0.26051
C         14.49787        16.76078         0.32661
C         15.73004        18.79703        -0.32506
C         14.47812        18.10755        -0.04856
C         15.70845        20.21339        -0.57839
C         14.47481        20.87742        -0.66309
C         15.74505        22.99118        -1.23952
C         14.43674        22.28509        -1.09649
C         15.74453        24.44680        -1.41621
C         14.57864        25.24333        -0.85059
C         15.73651        27.51701        -1.23323
C         14.48926        26.75544        -1.11822
C         15.84447        28.78241        -0.42127
C         14.57750        29.61641        -0.54204
C         15.91026        31.70574        -0.39488
C         14.61407        30.97393        -0.32429
C         15.92056        33.18395        -0.23581
C         14.66075        33.83028         0.22152
C         15.88598        36.09817         0.07751
C         14.65427        35.30873         0.41090
C         15.64164        37.51425        -0.30494
C         14.51795        38.17597         0.33740
C         15.63249        40.32869        -0.24071
C         14.52581        39.61990         0.26877
C         15.63928        41.73901        -0.26444
C         14.43089        42.42586        -0.00720
C         15.63979        44.58044        -0.41585
C         14.31565        43.85400        -0.45918
C         15.62999        45.99544        -0.23807
C         14.40692        46.68054         0.14616
C         15.63970        48.78960         0.39580
C         14.43226        48.05198         0.41661
C         15.66201        50.15935         0.71187
C         18.27758        10.41037         1.46447
C         18.13108        11.66377         0.72689
C         16.95785        12.54100         0.91018
C         18.16019        14.52452         0.04950
C         16.94044        13.86082         0.51547
C         18.18199        15.89076        -0.16412
C         16.88083        16.59448        -0.45491
C         18.19283        18.78212        -0.47263
C         16.93450        18.09595        -0.35809
C         18.19111        20.19883        -0.60047
C         16.97501        20.90608        -0.74628
C         18.24240        23.02650        -1.16089
C         17.00988        22.29597        -1.02126
C         18.22381        24.38991        -1.60130
C         16.92358        24.92291        -1.93579
C         18.25927        27.51730        -1.46484
C         16.91102        27.06837        -1.77324
C         18.34879        28.86238        -1.07182
C         17.05192        29.62034        -0.93591
C         18.46198        31.67557        -0.37086
C         17.17175        30.90256        -0.10810
C         18.43524        33.16630        -0.25837
C         17.18381        33.90362        -0.05368
C         18.38175        36.04010        -0.72285
C         17.17369        35.36930        -0.16844
C         18.38066        37.18405        -1.43723
C         16.47072        38.23269        -1.11290
C         18.12695        40.26684        -0.92830
C         16.67734        39.70548        -1.13514
C         18.11135        41.71474        -0.77740
C         16.88273        42.42417        -0.59362
C         18.06855        44.58233        -0.95469
C         16.83347        43.85891        -0.62439
C         18.05454        46.10939        -0.79263
C         16.82745        46.74235        -0.30125
C         18.09823        48.82692         0.06808
C         16.86713        48.11123         0.06097
C         18.10525        50.20751         0.38815
C         16.86805        50.88580         0.72192
C         18.06888        52.97784         1.23460
C         16.87748        52.23975         1.13085
C         18.10243        54.24855         1.80233
C         20.79755         6.65516         3.27646
C         20.77723         7.77768         2.46627
C         19.43961         8.32243         2.04175
C         20.71238        10.33180         1.04952
C         19.46646         9.73118         1.49278
C         20.70771        11.62418         0.51588
C         19.42105        12.27747         0.20460
C         20.71305        14.49015        -0.11055
C         19.39601        13.73741        -0.12697
C         20.64548        15.94943        -0.06142
C         19.42955        16.63123        -0.25296
C         20.73106        18.74454        -0.72740
C         19.41138        18.05475        -0.43726
C         20.72274        20.25261        -0.60762
C         19.44705        20.99052        -0.33825
C         20.68408        23.09594        -1.06134
C         19.47096        22.38565        -0.90577
C         20.63069        24.49865        -1.32264
C         19.40912        25.19810        -1.53819
C         20.66858        27.39989        -1.51292
C         19.43147        26.69189        -1.55842
C         20.72978        28.81188        -1.50392
C         19.57445        29.55044        -1.17274
C         20.76341        31.69799        -1.31756
C         19.61664        30.99556        -1.01971
C         20.72658        33.18306        -1.41071
C         19.55924        33.92711        -0.87649
C         20.84134        36.07818        -1.03245
C         19.68065        35.36639        -0.40431
C         20.78524        37.46601        -1.20596
C         19.51055        38.14305        -1.63165
C         20.62638        40.31022        -1.07754
C         19.34624        39.59094        -1.10333
C         20.61659        41.76074        -0.95798
C         19.36745        42.44711        -0.85202
C         20.57131        44.61024        -0.89529
C         19.36510        43.87241        -0.89117
C         20.55350        46.11527        -1.17066
C         19.32746        46.81127        -0.63690
C         20.57964        48.89422        -0.22909
C         19.33831        48.14685        -0.25677
C         20.54194        50.27017         0.13166
C         19.33287        50.92094         0.40498
C         20.52254        52.73946         1.60342
C         19.35185        52.41327         0.66212
C         20.56657        54.20371         1.94806
C         19.34521        54.92067         2.08268
C         20.59934        56.87303         2.91529
C         19.37735        56.24898         2.54490
C         20.62856        58.21094         3.37953
C         23.26181         4.28101         4.80975
C         22.04972         4.88674         4.48844
C         23.23810         6.55836         3.13229
C         22.01933         6.03178         3.65043
C         23.20916         7.69300         2.28231
C         21.99276         8.34557         1.97583
C         23.18222        10.27303         1.01273
C         21.98593         9.64253         1.30242
C         23.25132        11.65392         0.40682
C         21.93612        12.39915         0.44863
C         23.09203        14.56260         0.85567
C         21.93628        13.76373         0.29908
C         23.20135        15.97816         0.33037
C         21.91697        16.67702        -0.02429
C         23.15760        18.82395         0.07887
C         21.80087        18.16522         0.21682
C         23.18859        20.24141        -0.37280
C         21.90087        20.95468        -0.61351
C         23.18489        23.06102        -0.88459
C         21.94948        22.39937        -0.81999
C         23.20490        24.45976        -1.36597
C         21.91761        25.21163        -1.51762
C         23.24638        27.41500        -1.45792
C         21.94861        26.68075        -1.16184
C         23.26827        28.81752        -1.59956
C         21.98471        29.53784        -1.96173
C         23.20344        31.68517        -1.55643
C         22.01716        31.00772        -1.58521
C         23.22561        33.15139        -1.30669
C         22.00535        33.92665        -1.73920
C         23.22815        36.10366        -1.43266
C         22.03926        35.37952        -1.29232
C         23.21125        37.51419        -1.29563
C         21.97019        38.21563        -1.27682
C         23.16021        40.39607        -1.46216
C         21.86861        39.64905        -1.21469
C         23.13768        41.83925        -1.01938
C         21.83914        42.50923        -0.94508
C         23.07558        44.70122        -0.56871
C         21.80142        43.92373        -0.85652
C         23.03827        46.15715        -0.98761
C         21.84503        46.84552        -0.85280
C         23.04697        48.95859        -0.32948
C         21.81200        48.25638        -0.55900
C         23.06893        50.26234         0.15173
C         21.81119        51.08411         0.08868
C         23.02813        52.82205         1.41683
C         21.82141        52.23284         1.05359
C         23.01313        54.06801         2.13736
C         21.79779        54.79749         2.30031
C         23.05561        56.73170         3.24031
C         21.82265        56.13338         2.82235
C         23.06347        58.08172         3.69449
C         21.84098        58.82930         3.75593
C         23.09391        60.76003         4.58577
C         21.88537        60.17581         4.20997
C         24.46749         4.78873         4.31930
C         25.70994         6.47397         3.02230
C         24.48842         5.92667         3.47753
C         25.75467         7.62115         2.19136
C         24.47054         8.15700         1.67674
C         25.74096        10.28641         0.84363
C         24.45314         9.52769         1.00804
C         25.71161        11.76291         0.98734
C         24.45797        12.44431         0.87663
C         25.58416        14.62490         1.10275
C         24.42508        13.85628         0.89373
C         25.57008        16.07495         1.07199
C         24.37265        16.75078         0.79603
C         25.57349        18.94775         0.82635
C         24.25892        18.24036         0.97364
C         25.51009        20.41481         0.74026
C         24.31321        21.08178         0.13238
C         25.63816        23.11638        -0.34232
C         24.40783        22.45744        -0.39988
C         25.72085        24.49748        -0.85268
C         24.49174        25.22829        -1.29371
C         25.68105        27.42909        -1.23200
C         24.46409        26.71935        -1.30241
C         25.70150        28.83116        -1.44652
C         24.49191        29.52495        -1.63384
C         25.73967        31.77792        -1.58601
C         24.48816        31.01083        -1.98671
C         25.76772        33.15443        -1.47579
C         24.49928        33.91099        -1.32391
C         25.73881        36.05837        -1.31048
C         24.49611        35.36467        -1.79912
C         25.66801        37.46830        -0.93768
C         24.43938        38.24953        -1.14667
C         25.68347        40.35663        -1.05585
C         24.43428        39.63665        -1.07960
C         25.68173        41.85116        -0.82489
C         24.32744        42.53515        -0.99942
C         25.44049        44.65607        -1.44674
C         24.32410        43.99229        -1.00689
C         25.60605        46.17213        -1.58743
C         24.28870        46.90051        -1.25004
C         25.58767        49.00405        -0.42822
C         24.31304        48.35925        -0.79849
C         25.56761        50.23800         0.18473
C         24.30593        50.92972         0.45579
C         25.54719        53.00651         1.17196
C         24.28502        52.19895         1.03504
C         25.54909        53.93444         2.37737
C         24.24042        54.59797         2.73397
C         25.48399        56.59741         3.61206
C         24.26538        55.98154         3.23764
C         25.49054        57.92788         4.02569
C         24.29170        58.68971         4.08921
C         24.28727        60.03872         4.53152
C         26.95635         8.26134         1.91919
C         28.21069        10.41431         1.55162
C         27.05432         9.57243         1.27692
C         28.16416        11.80447         1.39609
C         26.88999        12.47177         1.22225
C         28.08436        14.69162         1.35775
C         26.81685        13.92767         1.60333
C         28.04822        16.10675         1.29650
C         26.79707        16.81913         1.21447
C         27.99942        18.99694         1.22716
C         26.78523        18.26710         1.07786
C         28.04818        20.47209         1.17959
C         26.77248        21.21368         0.85800
C         28.08898        23.19434         0.09392
C         26.84872        22.53522         0.19105
C         28.11703        24.58627        -0.32355
C         26.94684        25.25557        -0.58507
C         28.14355        27.47810        -0.46825
C         26.88355        26.72576        -0.70193
C         28.21952        28.86649        -1.01083
C         27.00703        29.55482        -1.53492
C         28.20747        31.81797        -1.18396
C         27.04976        31.06627        -1.82376
C         28.21580        33.21217        -1.25969
C         26.99226        33.92314        -1.44207
C         28.19507        36.12436        -1.29123
C         26.95443        35.37021        -1.31315
C         28.21916        37.50760        -1.27341
C         27.00035        38.26227        -0.94526
C         28.14757        40.41117        -1.58636
C         26.90594        39.70780        -1.15632
C         28.11159        41.88713        -1.87012
C         26.79466        42.55938        -1.56992
C         28.42719        44.95897        -1.74633
C         26.54762        43.84544        -1.92295
C         28.19512        46.16518        -1.05530
C         26.80606        46.75828        -0.75580
C         28.07051        48.83941         0.00097
C         26.89486        48.32278        -0.82798
C         28.03568        50.15094         0.53731
C         26.81031        50.89208         0.59730
C         28.01471        52.80225         1.58135
C         26.80619        52.18118         1.12638
C         27.97842        54.11293         2.22056
C         26.81334        54.65683         2.65207
C         26.78346        55.81806         3.62209
C         29.34954        12.58153         1.49376
C         30.53930        14.73368         1.30950
C         29.33098        14.00005         1.38668
C         30.53475        16.14693         1.30647
C         29.27558        16.82093         1.34408
C         30.54776        19.04687         1.56492
C         29.23229        18.27357         1.51408
C         30.52129        20.49424         1.23612
C         29.34874        21.17176         0.96802
C         30.56823        23.21727         0.32517
C         29.34554        22.55775         0.50244
C         30.67277        24.54585        -0.32266
C         29.40210        25.28755        -0.71861
C         30.63710        27.49050        -0.32484
C         29.42752        26.75499        -0.35499
C         30.63308        28.92573        -0.32808
C         29.36470        29.64702        -0.46171
C         30.61480        31.89218        -0.18245
C         29.31572        31.14348        -0.49680
C         30.59418        33.34111        -0.61666
C         29.46213        33.95476        -1.04708
C         30.70390        36.15357        -1.20928
C         29.47042        35.37247        -1.58127
C         30.69983        37.57310        -1.35118
C         29.45275        38.26949        -1.41822
C         30.65859        40.40089        -1.39831
C         29.43783        39.67505        -1.43639
C         30.56904        41.88854        -1.11750
C         29.50558        42.65451        -1.97996
C         30.63027        44.68416        -0.84210
C         29.51070        44.10933        -1.49345
C         30.56129        46.03828        -0.40413
C         29.32564        46.74460        -0.42897
C         30.45189        48.68434         0.63771
C         29.25741        48.09325         0.09289
C         30.42435        50.01086         1.09505
C         29.23028        50.74921         1.06432
C         29.20190        52.08715         1.54609
C         31.75046        16.88539         1.21539
C         32.99271        19.00168         1.14060
C         31.80602        18.29826         1.28905
C         33.10495        20.43334         1.57677
C         31.79782        21.21347         1.37652
C         33.16804        23.23280         0.50433
C         31.81118        22.64715         0.89411
C         33.10430        24.74972         0.56071
C         31.93751        25.36913        -0.14056
C         33.06685        27.67056         0.23209
C         31.89068        26.82656        -0.19613
C         33.18081        28.90907        -0.67422
C         31.85340        29.65105        -0.69964
C         33.12938        31.86337        -0.67514
C         31.84143        31.15007        -0.75340
C         33.08499        33.32527        -1.02311
C         31.89027        34.07699        -0.39051
C         33.12209        36.19369        -0.89264
C         31.88349        35.49511        -0.90905
C         33.15762        37.58218        -1.12045
C         31.92611        38.29606        -1.31171
C         33.15886        40.47219        -1.45672
C         31.88365        39.72177        -1.37694
C         33.13900        41.91442        -1.15022
C         31.91582        42.59369        -1.09189
C         33.07963        44.70153        -0.48694
C         31.88526        43.98334        -0.79694
C         33.00346        45.99295        -0.00476
C         31.74953        46.67178         0.10521
C         31.67573        47.96245         0.62917
C         34.34130        21.17879         1.14777
C         35.61869        23.36645         0.95709
C         34.34009        22.66644         1.35143
C         35.65515        24.75777         0.78404
C         34.37244        25.52225         0.72617
C         35.56537        27.63747         0.25214
C         34.39437        26.94278         0.30684
C         35.58162        29.08682         0.02353
C         34.36594        29.76527        -0.26935
C         35.55789        31.95282        -0.26632
C         34.32537        31.18916        -0.40857
C         35.57085        33.32604        -0.42046
C         34.35679        34.06783        -0.69342
C         35.58538        36.19225        -0.27280
C         34.34494        35.44067        -0.66448
C         35.60420        37.61667        -0.76899
C         34.43642        38.27037        -1.08021
C         35.67594        40.46208        -0.90143
C         34.47106        39.72392        -1.34804
C         35.58313        41.88716        -0.80140
C         34.39023        42.57951        -0.91555
C         34.42825        44.08077        -0.75063
C         36.83803        25.48597         0.59687
C         38.07335        27.68941         0.28088
C         36.83737        26.98218         0.75666
C         38.05715        29.06063         0.11010
C         36.80046        29.77717         0.10239
C         38.07129        31.93882        -0.27432
C         36.80992        31.27556         0.23501
C         38.07874        33.29732        -0.51439
C         36.83537        34.05984        -0.46547
C         38.05712        36.16067        -1.08070
C         36.84094        35.42359        -0.58273
C         38.05883        37.61432        -0.67944
C         36.87912        38.32374        -0.68445
C         36.83263        39.76790        -0.60678
C         39.28146        29.80384        -0.11064
C         40.53704        31.90033        -0.50366
C         39.29963        31.17460        -0.29393
C         40.55477        33.25073        -0.66647
C         39.32856        34.02736        -0.69835
C         39.32995        35.39289        -0.84657
O         14.98880        22.42479        -2.45864
O         26.61085         9.72271        -0.13732
O         33.95542        40.13691        -2.65509
O         27.27208        21.17738         2.23283
O         15.89591        32.55012        -1.59840
O         24.87995        53.52782         3.59030
O         18.90883        32.33187         0.89128
O         31.63060        30.39806        -1.99916
O         16.87448        36.04709         1.17895
O         27.50202        44.51335        -2.69121
O         24.40038         8.29779         0.22168
O         18.55080        11.51724        -0.68929
O         33.41534        25.32708         1.87166
O         22.60144        24.72473        -2.69816
O         22.85553        16.23791        -1.07091
O         24.42019        21.00883         1.61074
O         23.56442        19.14764        -1.28741
O         29.88273        18.70767         2.79749
O         31.66547        24.62910        -1.42625
O         17.20133        37.55263        -2.10262
O         20.10674        13.99501        -1.37101
O         27.98424        28.89062        -2.44757
O         26.37393        37.80881         0.29658
O         31.67527        22.33714         2.31370
O         28.86304        30.40963         0.72775
O         27.99178        40.94209        -2.98789
O         25.40914        24.66749        -2.30262
O         19.64815        33.69290        -2.31049
O         27.21213        27.31700         0.65713
O         24.12932        47.98859        -2.22003
O         10.46757        37.45291         2.91854
O         17.91196        45.46289        -2.12796
O         23.81599        33.62885        -0.05385
O         16.87684        26.06372        -2.73651
O         14.83445        34.40043         1.55985
O         22.72134        14.73847         2.27632
H         23.38079        15.34518         2.68028
O         29.32913        25.28749        -2.18176
H         30.25881        25.32492        -2.51013
O         21.06030        18.40865        -2.09129
H         22.03286        18.54060        -2.21167
O         37.89582        36.18885        -2.55934
H         37.96764        35.26340        -2.87759
O         23.49239        11.43580        -1.02482
H         22.77454        10.86369        -1.37047
O         36.81961        27.20067         2.22383
H         35.95526        26.87803         2.55904
O         32.79563        28.16949         1.57321
H         32.75585        27.38599         2.16725
O         12.15102        34.28299        -1.61750
H         12.07645        33.43111        -2.10962
O         24.46832        31.04693        -3.46032
H         25.41562        31.04822        -3.75801
O         13.96521        43.78031        -1.88985
H         14.68784        43.29676        -2.34542
O         32.85276        33.39929        -2.46542
H         33.51707        32.83289        -2.91109
O         19.92474        35.35335         1.02091
H         19.05865        35.37485         1.48461
O         12.18605        31.26176        -2.23852
H         13.04343        30.88716        -2.54090
O         12.72388        38.35043         2.82142
H         11.92157        38.10867         3.37867
O         30.82013        31.87164         1.25526
H         30.13075        31.25957         1.62598
O         16.63645        16.34057        -1.88723
H         16.71701        15.37351        -2.03456
O         27.90127        56.68237         3.41871
H         27.84840        57.04778         2.51208
O         22.09467        33.98363        -3.19610
H         21.17744        34.12544        -3.52964
O          9.47802        31.11442        -2.12166
H         10.39020        31.01132        -2.48967
O         18.48556         8.20793         3.10580
H         18.81936         8.71598         3.87307
O         20.24545        52.00429         2.84785
H         20.96072        52.21815         3.48393
O         25.98652        42.00833         0.60384
H         25.26217        41.59198         1.11718
O         27.18706        48.70709        -2.19028
H         26.64416        48.12920        -2.78380
O         33.45090        28.43128        -2.01392
H         33.04268        29.08066        -2.63179
O         27.24926        31.17577        -3.28312
H         27.87951        30.45586        -3.52976
O         33.37340        20.36975         3.02021
H         33.45139        21.31538         3.31921
O         16.33526        40.15901        -2.49125
H         16.66638        39.47320        -3.11154
O         11.07770        35.12024         2.49789
H         10.80960        35.82432         3.16439
O         21.91039        26.63130         0.31394
H         21.84006        27.54962         0.65240
O         21.93110        29.50463        -3.42201
H         22.72569        29.99324        -3.74819
O         19.54982        53.09406        -0.59793
H         20.36240        52.72214        -1.02791
O         11.68041        25.56030        -2.28046
H         11.95603        24.78190        -2.81000
O         32.12554        34.19944         1.03228
H         31.73465        33.40286         1.47118
O         23.23503        40.50082        -2.93494
H         23.04573        39.61264        -3.30753
O         25.58567        53.92642         0.02752
H         25.58763        53.38547        -0.79068
O         15.97854        28.34508         0.94322
H         16.20828        29.12553         1.50173
O         23.80907        18.45648         2.37893
H         24.00556        19.40899         2.57373
O         23.15539        44.74828         0.90235
H         22.33643        45.17314         1.23488
O         26.66497        13.92022         3.09789
H         25.81938        13.46310         3.29640
O         19.65769        38.32563        -3.08039
H         18.74960        38.37081        -3.45271
O         36.82502        31.50984         1.69461
H         36.80985        32.48141         1.83383
O         24.56471        35.32997        -3.25315
H         23.74356        34.87648        -3.56956
O         25.90377        46.45222        -2.97018
H         25.07318        46.40491        -3.48851
O         20.46821        46.22328        -2.63271
H         19.55451        45.92979        -2.87875
O         12.43692        26.50131         1.20685
H         12.22897        27.37166         1.63069
O         14.90005        25.21156         0.59444
H         14.22358        25.77421         1.05260
O         26.50517        46.40101         0.61013
H         27.27031        46.64063         1.17441
O         35.37771        44.46408         0.25227
H         35.07024        44.11955         1.11534
O         30.03513        41.98698         0.23970
H         30.63576        41.50577         0.84624
O         21.84725        51.70495        -1.27622
H         21.88727        50.96927        -1.92637
O         10.83916        24.57032         1.19750
H         11.73720        24.29644         1.47881
O         19.42189        21.17427         1.13537
H         20.26411        21.60547         1.39607
O         35.54454        36.29810         1.20304
H         34.60243        36.36884         1.46816
O         29.89676        42.64164        -3.34864
H         29.39766        41.91470        -3.79201
O         34.13924        22.93098         2.77929
H         33.81015        23.86246         2.85845
O         11.02887        28.94536         1.48022
H         10.16308        28.67855         1.86154
O         29.53178        35.23726        -3.04014
H         30.36817        34.77377        -3.26126
O         10.83333        20.30638        -0.18303
H         10.92079        20.53633         0.76431
O         17.15115        30.59881         1.30230
H         17.72562        31.27679         1.74247
O         16.71401        30.05192        -2.27932
H         16.78990        29.28244        -2.88260
O         21.30421        18.36965         1.55422
H         22.07895        18.32059         2.17667
O          9.06274        24.98349        -1.94584
H          9.76090        25.34236        -2.54056
O         33.47760        22.81668        -0.84022
H         32.86673        23.30017        -1.45227
H          4.94577        31.27232        -0.04914
H          4.97125        33.71533         0.33482
H          7.43861        26.97742        -0.42816
H          6.19632        29.13181        -0.38502
H          6.26000        35.84536         0.57590
H          7.54959        37.93352         0.61187
H          9.84208        22.49838        -0.46554
H          8.66356        24.89531         0.06968
H          8.74224        39.99157         0.63831
H          9.86643        42.17508         0.78561
H         12.29779        18.30702        -0.02726
H         11.77579        20.61874        -1.97651
H         11.08844        44.37306         0.81145
H         12.31426        46.48912         0.70825
H         14.84065        14.17777         1.05433
H         13.57095        16.28238         0.67844
H         13.49800        48.56348         0.69165
H         14.72227        50.66828         0.97224
H         17.39816         9.96693         1.95610
H         16.05306        12.10132         1.35682
H         15.93172        52.69620         1.46229
H         17.16179        54.73366         2.10609
H         19.84541         6.23866         3.63672
H         19.05862         7.65891         1.21420
H         18.43980        56.81793         2.63083
H         19.68899        58.77943         3.44108
H         23.27198         3.39412         5.45877
H         21.10581         4.48000         4.87817
H         23.10688        61.80301         4.93237
H         20.95247        60.75493         4.26296
H         25.41720         4.30391         4.58707
H         26.65653         6.02279         3.35540
H         26.44578        58.39398         4.30895
H         25.23321        60.50984         4.83392
H         27.86975         7.87555         2.39873
H         29.13419         9.94200         1.92014
H         28.93410        54.59317         2.48036
H         26.90281        55.38330         4.65504
H         30.31661        12.06620         1.58758
H         31.49814        14.19565         1.29052
H         31.34546        50.47699         1.47383
H         30.12842        52.53658         1.93223
H         32.69146        16.32994         1.09242
H         33.92752        18.43843         0.99710
H         33.92547        46.51865         0.28363
H         32.58481        48.45024         1.01054
H         35.29927        20.63717         1.22558
H         36.56804        22.81149         1.00129
H         36.49229        42.45577        -0.55321
H         34.80901        44.51755        -1.71772
H         37.80143        24.95376         0.61733
H         39.02801        27.14215         0.25762
H         39.02040        38.14560        -0.60880
H         37.74874        40.31753        -0.34199
H         40.22916        29.24444        -0.12414
H         41.47844        31.33105        -0.50444
H         41.50933        33.78064        -0.80081
H         40.28706        35.92397        -0.96866
