         470
 CSIRO Nanostructure Databank - Neutral Graphene Oxide Data Set
C         37.94675        50.46370        -2.47419
C         36.75780        51.17101        -2.60148
C         37.87943        53.19537        -1.90528
C         36.72254        52.54290        -2.31297
C         40.37249        48.97062        -1.70560
C         40.36454        50.34144        -1.87138
C         39.13734        51.10393        -2.06432
C         40.30520        53.19020        -1.33495
C         39.10170        52.50008        -1.78064
C         40.27309        54.36130        -0.60352
C         42.81318        48.88288        -1.44677
C         41.58574        48.24946        -1.56443
C         42.87782        50.33449        -1.46721
C         41.65275        51.06324        -1.87563
C         42.85403        53.28954        -1.21089
C         41.61056        52.58843        -1.65986
C         42.72089        54.56274        -0.48494
C         41.45757        55.03409        -0.18723
C         45.32118        46.04372        -1.44367
C         44.13051        46.74191        -1.59689
C         45.21436        48.76497        -0.82184
C         44.05177        48.11692        -1.29265
C         45.10245        50.18615        -0.40738
C         44.00203        50.99187        -0.99139
C         45.20501        53.09801        -0.14034
C         44.11992        52.45925        -0.93651
C         45.14345        54.52433         0.12670
C         43.93621        55.24360        -0.05319
C         45.04644        57.29058         0.67193
C         43.91265        56.62772         0.23726
C         47.91156        44.67275        -1.38012
C         47.76952        45.96826        -0.85003
C         46.48801        46.68078        -0.97020
C         47.65571        48.74094        -0.20255
C         46.40784        48.04615        -0.62361
C         47.61522        50.19286         0.13531
C         46.29363        50.88873         0.16152
C         47.40486        53.00033         0.99324
C         46.28995        52.36420         0.27131
C         47.48263        54.46365         0.97588
C         46.29867        55.19630         0.64348
C         47.46629        57.27735         1.32110
C         46.26155        56.59870         0.88794
C         47.47932        58.67371         1.52907
C         50.15726        44.48817        -0.46609
C         49.08033        43.94938        -1.18811
C         50.06435        45.81712         0.01543
C         48.88222        46.55309        -0.19687
C         50.03595        48.67089         0.65040
C         48.73658        47.90699         0.46399
C         49.95689        50.07278         0.92203
C         48.77554        50.79836         0.81513
C         49.94220        52.96912         1.44288
C         48.69682        52.20095         1.27426
C         49.89803        54.37395         1.55526
C         48.66967        55.11329         1.36433
C         49.90482        57.23394         1.74578
C         48.67997        56.54396         1.48889
C         49.89601        58.65006         1.75113
C         48.67885        59.34746         1.70605
C         52.75352        41.70472        -0.71599
C         51.60649        42.40610        -0.91571
C         52.51717        44.25311         0.57785
C         51.32885        43.62909        -0.15056
C         52.47451        45.70413         0.96917
C         51.19125        46.46925         0.74677
C         52.46235        48.57907         1.18405
C         51.24768        47.95687         0.81861
C         52.43775        49.99401         1.60588
C         51.13469        50.75626         1.49376
C         52.38755        52.86686         1.77225
C         51.18009        52.23372         1.50411
C         52.30300        54.28780         2.18260
C         51.11050        55.10104         1.85047
C         52.39931        57.24040         2.25829
C         51.13024        56.48730         1.96756
C         52.45599        58.67697         1.74663
C         51.16279        59.39776         1.52261
C         52.18441        60.79185        -0.26797
C         51.10120        60.38393         0.41002
C         55.16640        40.07956        -0.10489
C         55.09064        41.49715         0.19966
C         53.87695        42.24504         0.01430
C         54.99868        44.30022         0.79203
C         53.82193        43.58995         0.44561
C         54.96945        45.71825         1.07601
C         53.74866        46.44380         1.08366
C         54.91089        48.56771         1.59108
C         53.72640        47.87481         1.28789
C         54.94916        50.02254         2.02788
C         53.68775        50.77043         1.66837
C         54.92474        52.85725         2.03058
C         53.65642        52.14280         1.78515
C         54.79014        54.11621         2.54759
C         53.57643        54.95972         2.57542
C         54.97393        57.22986         1.94708
C         53.69727        56.46831         2.45429
C         54.52455        58.05547         0.73406
C         53.55845        59.00219         0.80600
C         54.62837        60.80595        -0.94148
C         53.57982        60.41733         0.17146
C         54.64943        62.32249        -1.03815
C         57.47325        39.87392         0.76041
C         56.27964        39.33016         0.09641
C         57.45065        41.41064         1.00931
C         56.23761        42.16862         0.64520
C         57.44010        44.29031         1.08137
C         56.23168        43.58890         0.82775
C         57.40755        45.67307         1.35314
C         56.19131        46.38160         1.37033
C         57.40709        48.56644         1.24800
C         56.19179        47.81891         1.84507
C         57.43748        50.06853         1.48199
C         56.23716        50.78621         1.68547
C         57.48044        52.92299         1.57503
C         56.24115        52.20257         1.81630
C         57.62725        54.36892         1.57489
C         56.60293        55.25562         2.08713
C         57.49911        57.25947         1.12754
C         56.29082        56.49967         1.59015
C         57.45176        58.68673         0.58859
C         56.24567        59.03061        -0.23119
C         57.23570        61.14788        -0.75076
C         56.03242        60.30536        -0.63941
C         57.10850        62.57124        -0.90256
C         55.75551        63.09911        -0.97305
C         60.05383        37.14730         0.60924
C         58.94128        37.85034         0.29076
C         59.94598        39.95441         1.06425
C         58.78924        39.22820         0.70555
C         59.93825        41.40392         1.11469
C         58.73898        42.10131         1.00804
C         60.02486        44.27844         1.08875
C         58.71815        43.56533         0.88760
C         59.97499        45.66025         1.64760
C         58.66153        46.37233         1.74963
C         59.97778        48.59710         1.57125
C         58.66932        47.87690         1.75582
C         59.93448        50.03461         1.17787
C         58.67060        50.75048         1.30744
C         59.87007        52.85220         0.80411
C         58.66875        52.18168         1.23693
C         59.86580        54.24548         0.59087
C         58.75516        55.00162         1.02763
C         59.98013        57.12978         0.31567
C         58.80494        56.48156         0.96087
C         59.96209        58.64504         0.23705
C         58.60267        59.05908        -0.33536
C         59.68039        61.25042        -1.09425
C         58.48606        60.53449        -0.68523
C         59.56791        62.79301        -1.20688
C         58.26024        63.39025        -0.90821
C         59.45013        65.48475        -0.48295
C         58.27331        64.78486        -0.59292
C         62.38897        35.66893         1.76618
C         62.42343        37.04398         1.49806
C         61.09518        37.77601         1.50469
C         62.40029        39.94351         1.28756
C         61.18429        39.25587         1.23451
C         62.42013        41.35756         1.23640
C         61.21303        42.10224         1.19890
C         62.49916        44.24728         1.39291
C         61.26750        43.51256         1.26376
C         62.45986        45.66564         1.44150
C         61.23800        46.41731         1.51407
C         62.43769        48.47183         0.94742
C         61.21261        47.79877         1.40924
C         62.38352        49.96128         0.68236
C         61.11430        50.70392         0.90410
C         62.33300        52.80038         0.46337
C         61.12297        52.13001         0.67256
C         62.35383        54.17670        -0.03164
C         61.02533        54.92521        -0.00881
C         62.32486        57.03297        -0.47964
C         61.07754        56.40452        -0.05228
C         62.27682        58.45049        -0.91440
C         61.02631        59.20573        -0.67160
C         62.18429        61.38409        -1.01618
C         61.01586        60.67552        -0.85253
C         62.11679        62.86184        -1.41925
C         60.81328        63.53846        -1.02586
C         61.98031        65.65665        -0.58118
C         60.74548        64.87877        -0.69018
C         61.98393        67.03353        -0.53511
C         64.79775        35.66103         1.88859
C         63.57761        34.99277         2.01981
C         64.90465        37.01506         1.48452
C         63.65996        37.71678         1.42592
C         64.99622        39.87458         1.33772
C         63.66861        39.18931         1.48029
C         64.97278        41.31367         0.91819
C         63.69041        42.08334         1.02389
C         65.00500        44.18245         1.29533
C         63.75071        43.53850         1.27740
C         65.02610        45.64562         1.56509
C         63.72446        46.41091         1.58140
C         64.91613        48.53869         0.94261
C         63.73485        47.83706         1.19449
C         64.86097        49.96819         0.67015
C         63.67233        50.66440         0.68283
C         64.89736        52.91331         0.36232
C         63.63832        52.14244         0.66977
C         64.83631        54.31751        -0.09602
C         63.62206        54.94872        -0.17358
C         64.75852        57.10311        -0.87673
C         63.51882        56.35392        -0.52588
C         64.71125        58.58224        -0.75941
C         63.52042        59.25160        -0.92502
C         64.67328        61.43335        -0.84173
C         63.45192        60.69935        -0.90647
C         64.63527        62.90512        -1.02050
C         63.33050        63.62649        -0.93887
C         64.45466        65.71269        -0.06179
C         63.25835        64.94226        -0.58970
C         64.42460        67.19521        -0.36734
C         63.19743        67.79217        -0.51432
C         67.21819        32.76141        -0.42067
C         66.53829        33.17324         0.73073
C         67.41712        35.45952         0.45761
C         66.62176        34.51355         1.12056
C         67.44219        36.90760         0.86940
C         66.18600        37.68586         1.17884
C         67.40584        39.84152         0.68292
C         66.22054        39.07474         1.06833
C         67.41880        41.29859         0.77350
C         66.25733        42.04136         0.96920
C         67.48404        44.17539         0.87952
C         66.23310        43.47200         1.08170
C         67.51900        45.65640         1.00050
C         66.28030        46.43183         1.31502
C         67.38283        48.59485         0.72127
C         66.19604        47.87982         0.97829
C         67.40099        49.98270         0.48473
C         66.11828        50.66702         0.30258
C         67.42616        52.87816         0.07507
C         66.13527        52.14190         0.01830
C         67.39090        54.31428        -0.04986
C         66.12423        54.86516        -0.70707
C         67.38954        57.18510        -0.90554
C         66.07526        56.38926        -0.93574
C         67.22838        58.65384        -0.52194
C         65.91008        59.32177        -0.25581
C         67.11337        61.53347        -0.37620
C         65.89523        60.79440        -0.59230
C         67.10858        62.94496        -0.31147
C         65.89005        63.66944        -0.68669
C         66.95805        65.80918        -0.13397
C         65.79615        65.09473        -0.34891
C         66.91873        67.26523        -0.15729
C         65.68059        67.93653        -0.33978
C         66.88970        70.04937        -0.52699
C         65.70167        69.34091        -0.51408
C         68.54454        31.94091        -2.93731
C         68.78354        33.31953        -2.37378
C         68.09791        33.63655        -1.05588
C         69.46469        35.70087        -0.94037
C         68.29665        34.95098        -0.53576
C         69.63928        37.02892        -0.55070
C         68.62007        37.70026         0.31011
C         69.68545        39.88615        -0.34991
C         68.53315        39.16528         0.22788
C         69.78987        41.37429        -0.12226
C         68.75286        42.01431         0.78179
C         69.88095        44.23128         0.15277
C         68.64267        43.50596         0.55961
C         69.98882        45.68212         0.39986
C         68.68618        46.38629         0.42473
C         69.92757        48.61122         0.51626
C         68.64159        47.86423         0.43514
C         69.85325        50.04567         0.18094
C         68.62742        50.70707         0.24978
C         69.87750        52.89139         0.41618
C         68.61019        52.16351         0.17895
C         69.84547        54.40768         0.44600
C         68.53380        55.08781         0.13141
C         69.44364        57.35331         0.44057
C         68.45703        56.52095        -0.04809
C         69.59631        58.73074         0.09481
C         68.37183        59.40390        -0.24380
C         69.53025        61.54877         0.17086
C         68.33921        60.83997        -0.14049
C         69.45762        62.96212         0.37313
C         68.25725        63.67200         0.10458
C         69.37890        65.88143         0.29354
C         68.22004        65.12445         0.09101
C         69.39283        67.30136         0.03851
C         68.14330        67.99137        -0.16831
C         69.39060        70.13034        -0.42324
C         68.13711        69.40120        -0.36755
C         69.42224        71.52512        -0.66527
C         70.72978        31.99855        -4.03791
C         69.44470        31.37519        -3.76815
C         71.13739        33.08542        -3.34494
C         70.26551        33.65264        -2.29155
C         71.79289        35.71434        -1.89312
C         70.57474        34.96704        -1.58723
C         71.88660        37.03586        -1.58386
C         70.82421        37.73750        -0.91752
C         72.12824        39.84141        -0.75518
C         70.92968        39.14612        -0.66187
C         72.22535        41.23920        -0.50981
C         71.13329        41.99477        -0.16070
C         72.41829        44.23387         0.12838
C         71.17725        43.47971        -0.09738
C         72.41386        45.58831         0.25509
C         71.18506        46.35451         0.30990
C         72.39275        48.63614        -0.03612
C         71.22132        47.85281         0.43934
C         72.31688        49.93978        -0.34793
C         71.04431        50.75792        -0.39931
C         72.14162        52.99270        -0.69579
C         71.22797        52.17719         0.20224
C         72.12739        54.33987        -0.67932
C         71.15409        55.07964         0.10708
C         72.35518        57.36424         0.18064
C         71.36660        56.36790         0.52993
C         72.10677        58.71202         0.19340
C         70.83022        59.42023         0.24928
C         71.96673        61.62417         0.57511
C         70.78822        60.84897         0.29649
C         71.90931        62.95240         0.87403
C         70.63575        63.66834         0.87531
C         71.84771        66.00696         0.70899
C         70.60181        65.25143         0.81033
C         71.83743        67.30182         0.29453
C         70.61130        68.01061         0.02128
C         71.83347        70.16853        -0.31632
C         70.62210        69.43492        -0.24243
C         71.83524        71.53274        -0.55634
C         70.62094        72.21729        -0.73013
O         51.55973        50.19521         2.78014
O         51.53783        43.44597         1.29108
O         67.27621        46.12556         2.37325
O         70.82542        33.62689        -0.96016
O         61.50946        54.31372        -1.24033
O         70.34492        43.95721        -1.22518
O         70.41339        64.50884         2.05039
O         61.24427        58.57891        -1.98472
O         52.66466        54.50388         3.61703
O         64.24187        41.62928        -0.31066
O         64.46060        52.74784         1.75620
O         52.01516        59.72337         2.68152
O         53.03944        57.11742         3.57665
O         62.27797        49.00050        -0.43494
O         58.49814        57.17989         2.22086
O         57.22418        40.45666         2.08498
O         70.35405        56.85970         1.38241
O         55.86572        54.74662         3.15350
O         65.99733        51.22418        -1.09684
O         41.74038        52.01456        -2.98620
O         69.85015        53.63383         1.69338
O         55.32325        58.00248        -0.41429
O         45.28620        50.30143         1.06663
O         51.51685        45.91532         2.07092
O         48.06016        49.71496        -1.21461
O         64.42464        46.05397         2.83855
O         68.59551        37.21464         1.71192
O         65.35117        56.66811        -2.18686
O         68.45980        47.10976        -0.83864
O         47.68677        52.41704         2.31378
O         69.30017        40.87113        -1.39114
O         65.92254        34.91516         2.26183
O         70.70869        48.32107         1.74119
O         65.48914        63.39278        -2.10555
O         59.31159        48.44925         2.90534
O         59.28892        45.76747         2.93430
O         59.57459        61.93081        -2.40244
O         64.42079        39.67416         2.66953
O         59.46998        44.12975        -0.26878
O         43.92094        53.20085        -2.18975
O         57.47822        59.57040         1.73221
H         56.76357        59.27874         2.35185
O         69.32524        41.86160         2.13009
H         68.66901        42.19515         2.77883
O         55.31021        58.19629         2.96810
H         54.54985        58.22687         3.60281
O         57.33542        48.35797        -0.18564
H         58.00028        48.93090        -0.62260
O         70.74518        50.98933        -1.80858
H         70.49440        50.13533        -2.21959
O         65.76053        59.25385         1.24143
H         66.44353        59.84535         1.62645
O         67.91534        57.16392        -2.26455
H         67.13679        57.23735        -2.86397
O         54.13075        60.25983        -2.18179
H         54.80965        60.40395        -2.87290
O         58.41261        58.29243        -1.54923
H         59.20704        58.41119        -2.11980
O         62.15551        62.86752        -2.87659
H         61.31275        62.44690        -3.17483
O         60.57259        37.65063         2.87234
H         61.18430        38.13271         3.46852
O         56.42764        47.78410         3.29086
H         55.81253        47.13012         3.68584
O         64.32743        65.61376         1.41045
H         64.98154        66.22952         1.80517
O         53.92135        61.25021         1.30650
H         53.28158        61.03856         2.03029
O         71.87882        52.02993         1.47342
H         71.48529        52.70501         2.07596
O         54.92645        49.99427         3.49402
H         55.63615        49.36511         3.77995
O         60.19754        59.22934         1.52490
H         59.46669        58.93430         2.12322
O         66.15162        54.24264        -2.02099
H         65.60303        54.80910        -2.61366
O         48.22149        47.65180         1.80689
H         48.91008        47.16773         2.31184
O         68.23712        34.26273        -3.35509
H         67.31560        33.99454        -3.55362
H         37.96152        49.39237        -2.71786
H         35.84600        50.65598        -2.93392
H         37.84674        54.27505        -1.70290
H         35.78376        53.10359        -2.41930
H         39.42939        48.40702        -1.70040
H         39.30719        54.80229        -0.32092
H         41.52805        47.15441        -1.50222
H         41.34388        55.95710         0.39798
H         45.33694        44.97613        -1.69991
H         43.24778        46.20945        -1.97626
H         44.98324        58.37109         0.85457
H         42.98616        57.19729         0.08240
H         47.08651        44.20146        -1.92933
H         46.55015        59.25513         1.47757
H         49.13535        42.92413        -1.57643
H         48.68056        60.44389         1.77801
H         52.88347        40.75182        -1.24754
H         50.86115        42.02640        -1.62792
H         52.05658        61.45953        -1.13261
H         50.10005        60.69237         0.07116
H         54.29185        39.59740        -0.56303
H         53.67651        62.81932        -1.17605
H         56.29427        38.28620        -0.24828
H         55.63646        64.19018        -1.06087
H         60.15447        36.09369         0.31135
H         58.12894        37.36978        -0.27385
H         59.40290        66.54605        -0.20341
H         57.32255        65.29974        -0.39427
H         61.42451        35.15484         1.87252
H         61.03933        67.59219        -0.58132
H         63.57386        33.94220         2.33685
H         63.11078        68.88268        -0.62138
H         67.09079        31.73298        -0.78472
H         65.91636        32.47334         1.30245
H         66.84546        71.13691        -0.66920
H         64.76129        69.89097        -0.65119
H         67.56933        31.45811        -2.77308
H         68.48639        72.08100        -0.80916
H         71.38600        31.53958        -4.79059
H         69.22571        30.41091        -4.24916
H         72.14397        33.50098        -3.49557
H         72.63688        35.19235        -2.36395
H         72.80266        37.58047        -1.84865
H         73.05676        39.30501        -0.99256
H         73.21428        41.71169        -0.59633
H         73.36468        43.68088         0.21647
H         73.36829        46.11560         0.39380
H         73.36649        48.12641        -0.10002
H         73.23336        50.45362        -0.67629
H         72.90650        52.46392        -1.28203
H         72.88730        54.91260        -1.23362
H         73.36732        57.02709        -0.09108
H         72.98005        59.34590        -0.02531
H         72.94157        61.12180         0.63304
H         72.81891        63.48096         1.18985
H         72.79112        65.53366         1.01280
H         72.79400        67.83776         0.24136
H         72.79785        69.66014        -0.18755
H         72.78679        72.07920        -0.61119
H         70.62188        73.29936        -0.92007
