         324
 CSIRO Nanostructure Databank - Neutral Graphene Oxide Data Set
C          1.38583         2.09066         1.35107
C          1.33600         3.47610         1.15454
C          2.58181         1.40007         1.22636
C          2.48600         4.21125         0.79180
C          1.38190         6.40277         1.17474
C          1.42300         7.80890         1.37366
C          2.45760         5.67540         0.70102
C          2.56594         8.55421         1.14905
C          1.62038        10.68705         1.99115
C          1.64946        12.09037         2.17038
C          2.62414         9.98982         1.33604
C          2.59745        12.88501         1.54237
C          2.02518        14.91198         2.86251
C          2.27098        16.20115         3.29967
C          2.88339        14.25745         1.94503
C          3.37227        16.92791         2.79478
C          3.61981        18.28251         3.23021
C          3.76330         2.09534         0.85088
C          3.69435         3.49861         0.59878
C          4.99371         1.40230         0.70933
C          4.91333         4.17091         0.12043
C          3.64683         6.42158         0.23612
C          3.72196         7.90788         0.49485
C          4.92273         5.68103        -0.04491
C          5.08847         8.51535         0.78300
C          3.66379        10.71915         0.56242
C          3.48207        12.26950         0.54433
C          5.08942        10.11827         0.63950
C          4.54997        13.11614         0.01828
C          4.03022        14.96673         1.45931
C          4.22463        16.31103         1.84930
C          4.93460        14.33976         0.49671
C          5.29680        17.12310         1.23542
C          4.69897        18.99384         2.79071
C          5.62052        18.43374         1.84122
C          6.20924         2.06256         0.40159
C          6.19999         3.47688         0.18741
C          7.42173         1.34334         0.24970
C          7.39953         4.18220        -0.07170
C          6.21887         6.39070         0.00189
C          6.25527         7.79751         0.12332
C          7.42426         5.64773        -0.15135
C          7.48155         8.47979        -0.09015
C          6.25281        10.62684        -0.21440
C          6.32430        11.98069        -0.61329
C          7.47718         9.91999        -0.19633
C          7.48691        12.75088        -0.49877
C          6.16859        15.00830        -0.03534
C          6.33113        16.45732         0.34111
C          7.44474        14.23974        -0.47373
C          7.67151        17.06742         0.30646
C          6.74221        19.11290         1.41499
C          7.78987        18.46180         0.68864
C          8.60151         2.01009        -0.11575
C          8.58392         3.43609        -0.21966
C          9.84547         1.30856        -0.28451
C          9.87322         4.11869        -0.43457
C          8.64659         6.34021        -0.30328
C          8.67969         7.75850        -0.35786
C          9.91423         5.60770        -0.46459
C          9.91811         8.45076        -0.63933
C          8.70018        10.61055        -0.45216
C          8.71414        12.03814        -0.45295
C          9.91891         9.88515        -0.64706
C          9.93784        12.75122        -0.63042
C          8.76765        14.92692        -0.33120
C          8.81015        16.31841        -0.00045
C          9.95856        14.18826        -0.52568
C         10.12855        16.96803         0.37977
C          8.97200        19.15847         0.40593
C         10.15565        18.45868         0.07631
C         10.99499         1.93248        -0.77233
C         10.84046         3.34929        -1.29758
C         12.23478         1.27302        -0.80601
C         12.15036         4.09066        -1.59321
C         11.09545         6.29737        -1.03932
C         11.10789         7.72845        -0.97278
C         12.22285         5.57714        -1.43962
C         12.33605         8.40499        -1.25026
C         11.11039        10.61106        -0.91399
C         11.11391        12.01898        -0.91219
C         12.37826         9.86800        -1.09454
C         12.26748        12.77185        -1.46336
C         11.25531        14.84618        -0.59782
C         11.37066        16.23275        -0.10455
C         12.36817        14.21113        -1.12969
C         12.60136        17.00573        -0.49389
C         11.31579        19.13716        -0.27442
C         12.54012        18.48094        -0.59091
C         13.44971         1.92180        -1.13971
C         13.42878         3.30595        -1.69111
C         14.66227         1.33161        -0.80475
C         14.75481         4.02317        -1.93160
C         13.48468         6.25129        -1.64008
C         13.50811         7.70308        -1.58616
C         14.69439         5.52326        -1.73177
C         14.71151         8.41787        -1.99324
C         13.60994        10.59025        -1.59890
C         13.47161        12.04112        -1.95823
C         14.73356         9.79960        -2.13655
C         14.72632        12.81559        -2.24785
C         13.62832        14.90670        -1.36869
C         13.69843        16.30470        -1.18039
C         14.78684        14.23267        -1.85121
C         14.87128        17.02812        -1.49839
C         13.66232        19.16371        -1.02208
C         14.87593        18.48635        -1.37740
C         15.90948         2.04255        -0.84677
C         15.94368         3.40140        -1.25028
C         17.10136         1.42568        -0.42247
C         17.16208         4.11098        -1.30145
C         15.94864         6.19115        -1.83291
C         15.92008         7.60128        -2.27362
C         17.17433         5.51060        -1.69473
C         17.25091         8.29441        -2.48461
C         15.93797        10.54529        -2.59892
C         16.00032        12.05930        -2.54076
C         17.24057         9.79765        -2.61322
C         17.29815        12.77595        -2.35921
C         16.01520        14.91268        -2.02806
C         16.03322        16.33139        -1.88658
C         17.25965        14.14884        -2.20669
C         17.26969        17.10969        -2.09711
C         16.04477        19.20906        -1.57031
C         17.29284        18.55579        -1.80045
C         18.33491         2.10146        -0.52680
C         18.36864         3.43903        -1.01045
C         19.53234         1.49377        -0.04519
C         19.66550         4.06833        -1.32220
C         18.44873         6.20341        -1.75656
C         18.48445         7.58346        -2.07957
C         19.68670         5.53967        -1.51576
C         19.70132         8.30420        -2.05372
C         18.52890        10.51591        -2.44828
C         18.60746        12.02428        -2.48350
C         19.62391         9.69240        -2.50673
C         19.90305        12.75932        -2.04625
C         18.48805        14.87904        -1.76266
C         18.58060        16.35340        -1.98031
C         19.76406        14.15773        -1.50900
C         19.77197        17.08699        -1.53479
C         18.50336        19.21646        -1.67490
C         19.74565        18.51136        -1.49287
C         20.79718         2.07807        -0.13546
C         20.94687         3.31838        -0.97028
C         21.80859         1.52730         0.69966
C         22.18204         4.16567        -0.90673
C         20.90939         6.27444        -1.40842
C         20.91137         7.70136        -1.60525
C         22.14098         5.57027        -1.11881
C         22.07461         8.46515        -0.93826
C         21.46956        10.76017        -1.94033
C         21.19809        12.13303        -1.64216
C         22.27809         9.95040        -1.17195
C         22.16228        12.81759        -0.91687
C         20.98130        14.93883        -1.14881
C         20.91631        16.38301        -1.07704
C         22.11076        14.24456        -0.72166
C         22.01045        17.10556        -0.55199
C         20.90817        19.21120        -1.10737
C         22.04952        18.53152        -0.61785
C         23.18738         1.78162         0.53990
C         23.42002         3.54657        -0.72719
C         24.20240         1.76378         1.47947
C         24.61974         4.27064        -0.18714
C         23.44247         6.28700        -1.20623
C         23.42651         7.79342        -1.10096
C         24.77745         5.57486        -1.00422
C         24.62303         8.49497        -0.53994
C         23.35964        10.59616        -0.48638
C         23.39709        12.07973        -0.56783
C         24.48629         9.87718        -0.11218
C         24.51959        12.82779         0.07241
C         23.21927        14.92855        -0.07250
C         23.07543        16.38254         0.16161
C         24.33012        14.26060         0.38754
C         24.26383        17.16351         0.67011
C         23.22825        19.24216        -0.23686
C         24.35610        18.60727         0.33461
C         25.52434         2.30420         1.22647
C         25.77118         3.34539         0.25377
C         26.60156         1.81924         1.98396
C         27.09763         3.73359         0.08455
C         26.01221         6.45765        -0.90224
C         25.84964         7.87311        -0.50521
C         27.31242         5.82573        -0.60868
C         27.09187         8.63563        -0.05173
C         25.57317        10.55343         0.64585
C         25.56964        12.04370         0.80351
C         26.85083         9.77997         0.95777
C         26.83770        12.75855         1.06205
C         25.43925        14.96376         1.06953
C         25.51815        16.43046         0.95239
C         26.76663        14.20291         1.31120
C         26.68801        17.10464         1.19786
C         25.52188        19.27825         0.67802
C         26.63562        18.60404         1.43397
C         27.88663         2.40941         1.94399
C         28.14728         3.46662         1.01592
C         28.92930         1.98087         2.81755
C         29.34663         4.25498         1.12901
C         28.38427         6.38305        -0.01420
C         28.24350         7.77420         0.47920
C         29.56531         5.56345         0.42705
C         29.47087         8.52726         0.86463
C         28.12437        10.64805         0.98395
C         28.06709        12.08083         1.08126
C         29.37601        10.01293         0.96973
C         29.29141        12.85004         1.17211
C         28.00573        14.98931         1.26806
C         27.95799        16.39916         1.25997
C         29.25340        14.28678         1.19952
C         29.17214        17.14742         1.13967
C         27.91868        19.27949         1.08001
C         29.12099        18.58538         0.97397
C         30.12542         2.65272         2.83300
C         30.32465         3.83182         2.05104
C         31.49091         4.63772         2.34935
C         30.80454         6.37743         0.75896
C         30.79107         7.88993         0.43434
C         31.70282         5.85704         1.80101
C         31.95217         8.68147         0.98094
C         30.58420        10.74020         1.11747
C         30.54259        12.17372         1.19110
C         31.83445        10.00987         1.22074
C         31.73700        12.95105         1.24076
C         30.46740        15.03270         1.18643
C         30.42726        16.47828         1.10497
C         31.69906        14.32571         1.22354
C         31.60648        17.24397         0.93185
C         30.33861        19.29819         0.75435
C         31.55368        18.63121         0.75643
O         12.45439        16.43589         0.87350
O         25.80963        14.50069         2.40227
O         28.67836         7.84856         1.88231
O         23.54322         7.16526        -2.38920
O          6.51117        14.82625        -1.43844
O         27.40119         4.50294        -1.04594
O          5.16998        12.59108        -1.10868
O         10.36125         4.81844         0.74198
O         24.56140        12.55957        -1.37373
O         20.80819        10.20546        -3.01575
O         19.52270        12.62946        -3.44857
O         18.04810        16.73682        -3.28295
O         25.04527        11.19572         1.88278
O         20.41142         3.26506        -2.32107
O         23.17352        16.80203         1.58126
O         13.42589        10.35005        -0.15644
O         16.55323        10.14767        -3.86535
O         23.52348         2.17941        -0.80008
O         12.60844         3.54662        -2.89123
O         12.42175        12.39500        -2.90506
O         16.52966         7.69311        -3.60358
O          5.40096         8.18738         2.12139
O          3.01538        11.38546        -0.54147
O         30.73630         5.56504        -0.46562
O         18.79503        14.37983        -0.40125
O          5.23996        17.24404        -0.23472
O          3.42176         7.41329        -0.83971
O         25.56414         5.80926        -2.17954
O          4.77213         4.82388        -1.21205
O         15.19298        12.62446        -3.62481
O         15.07126         3.84409        -3.34971
H         14.22746         3.96611        -3.84318
O         10.12447         3.24383        -2.55825
H         10.78878         2.98642        -3.23881
O         26.64827         9.20016         2.25592
H         26.16206         9.86550         2.79458
O         30.84061         8.03827        -1.00751
H         30.90404         7.12432        -1.38313
O         21.76242         8.35916         0.48873
H         20.97752         8.91279         0.68254
O          5.51323        10.62079         1.93498
H          5.69086         9.78374         2.47373
O         27.59307         9.28805        -1.25141
H         27.70660         8.61718        -1.95739
O         26.40758        18.78543         2.87909
H         25.62094        18.25232         3.12389
O         10.13568        16.88172         1.83913
H         11.08384        16.91921         2.10956
O         24.15269         4.84846         1.08973
H         24.05819         4.11238         1.73517
H          0.46828         1.55265         1.62662
H          0.37269         3.98631         1.28348
H          2.62845         0.31819         1.41300
H          0.46598         5.88540         1.49177
H          0.52244         8.28959         1.78007
H          0.83064        10.12699         2.51158
H          0.94696        12.52322         2.89500
H          1.13747        14.39052         3.24320
H          1.59651        16.67652         4.02565
H          2.92445        18.72661         3.95717
H          5.00549         0.31161         0.85348
H          4.88781        20.00999         3.16646
H          7.42616         0.25351         0.39222
H          6.92543        20.13578         1.77695
H          9.88832         0.24546        -0.00235
H          8.99125        20.25573         0.48811
H         12.29144         0.24499        -0.41475
H         11.28061        20.23459        -0.35852
H         14.65995         0.31017        -0.39542
H         13.64366        20.26286        -1.06755
H         17.08005         0.39020        -0.05353
H         16.03552        20.30010        -1.42966
H         19.43801         0.53806         0.49194
H         18.50107        20.30338        -1.50290
H         21.48808         0.84144         1.49896
H         20.90261        20.31112        -1.12123
H         23.99595         1.33632         2.47091
H         23.25694        20.33088        -0.39178
H         26.42353         0.99528         2.68980
H         25.61141        20.35358         0.46177
H         28.75558         1.12504         3.48488
H         27.92104        20.37536         0.97707
H         30.92889         2.33507         3.51351
H         32.17804         4.26269         3.12250
H         32.53545         6.48166         2.15432
H         32.94479         8.21089         1.04135
H         32.73565        10.56258         1.52262
H         32.71486        12.45327         1.26220
H         32.64841        14.87650         1.24305
H         32.58683        16.75124         0.90171
H         30.30060        20.38786         0.61529
H         32.48704        19.19161         0.60745
