         651
 CSIRO Nanostructure Databank - Neutral Graphene Oxide Data Set
C          5.86504        31.74226         0.22584
C          5.86980        33.10527         0.07332
C          8.21806        27.45973         0.74129
C          8.35095        28.84957         0.66964
C          7.12289        29.61286         0.53852
C          8.33297        31.64022        -0.11554
C          7.07421        30.95714         0.24048
C          8.33100        33.13738        -0.36001
C          7.07342        33.87462        -0.13206
C          8.29331        36.04758        -0.35511
C          7.11051        35.25104        -0.08844
C          8.15032        37.43719        -0.20014
C         10.96540        23.27751         1.18922
C         10.89995        24.66038         1.01768
C          9.58261        25.25640         0.77464
C         11.11690        27.61277         1.06550
C          9.27139        26.55053         1.12140
C         10.93131        28.96931         0.65180
C          9.61945        29.61281         0.64070
C         10.77445        31.79695         0.37366
C          9.57775        30.96128         0.28234
C         10.76700        33.21079        -0.07096
C          9.60056        33.90841        -0.31836
C         10.79833        36.02875        -0.68397
C          9.56941        35.35011        -0.55555
C         10.92875        37.41588        -1.00157
C          9.11709        38.41065        -0.62263
C         10.67981        40.38226        -0.45140
C          9.46742        39.64517        -0.10333
C         10.59187        41.76413        -0.13115
C         13.24476        18.91488         1.92579
C         12.96374        20.14520         1.34463
C         12.03406        21.17013         1.62341
C         13.41274        23.22373         0.85813
C         12.16897        22.52018         1.18160
C         13.37759        24.65440         0.74899
C         12.15595        25.37580         0.89590
C         13.30830        27.42013        -0.01498
C         12.17762        26.80147         0.69856
C         13.27533        28.91554        -0.26033
C         12.08932        29.63253         0.22392
C         13.40424        31.77172         0.13058
C         12.13785        31.06573         0.37729
C         13.32430        33.25179         0.38077
C         12.08127        33.83671        -0.26885
C         13.30028        36.07607        -0.26450
C         12.08443        35.31805        -0.56815
C         13.19039        37.56485         0.00085
C         12.01115        38.23710        -0.68061
C         13.22805        40.36023        -0.68937
C         11.94215        39.67200        -0.73293
C         13.36337        41.71909        -0.94203
C         11.54614        42.77567        -0.48401
C         13.22865        44.66153         0.08157
C         11.87676        43.95353         0.14455
C         13.18869        46.12223        -0.32102
C         15.77555        14.72679         1.32192
C         15.77306        16.07034         1.59143
C         14.56534        16.87342         1.65347
C         15.80714        19.04830         1.62070
C         14.51711        18.25512         1.67166
C         15.95371        20.48009         1.19046
C         14.83760        21.17322         0.75685
C         15.92975        23.30883         0.79551
C         14.69138        22.58477         0.82057
C         15.86313        24.68030         0.46599
C         14.61364        25.37776         0.45075
C         15.80371        27.51849        -0.12896
C         14.60777        26.74533         0.08720
C         15.84426        28.91400        -0.21684
C         14.57489        29.67482        -0.57601
C         15.85472        31.79236         0.00055
C         14.57371        31.10504        -0.09816
C         15.80238        33.24504         0.03100
C         14.56613        33.95517        -0.07609
C         15.76534        36.11677        -0.29059
C         14.50371        35.36684        -0.15405
C         15.73615        37.56299         0.16897
C         14.48320        38.29154        -0.24809
C         15.74594        40.39991        -0.37885
C         14.48312        39.64948        -0.42836
C         15.74984        41.82154        -0.46221
C         14.51169        42.51155        -0.61563
C         15.67037        44.63435        -0.56086
C         14.44479        43.91903        -0.49047
C         15.61914        46.09777        -0.77076
C         14.36114        46.84376        -0.52576
C         15.66359        48.98620        -0.46164
C         14.43260        48.26642        -0.57208
C         15.67217        50.41103        -0.31399
C         18.26309        10.61438        -0.16217
C         18.23695        11.94422         0.39087
C         17.04290        12.55335         0.75894
C         18.29759        14.60421         1.35154
C         17.00516        13.85771         1.50978
C         18.33585        16.04455         1.65334
C         17.05637        16.78208         1.83331
C         18.28490        18.96335         1.08318
C         17.08251        18.27889         1.72805
C         18.36842        20.41233         1.51455
C         17.19290        21.20076         1.37857
C         18.38151        23.37208         0.83510
C         17.18968        22.63044         1.05022
C         18.36663        24.58123         0.00070
C         17.03831        25.30975        -0.14534
C         18.36224        27.55037        -0.44659
C         17.05104        26.78266        -0.39450
C         18.34397        28.99760        -0.13372
C         17.10591        29.64526        -0.16360
C         18.29459        31.78336         0.52747
C         17.06755        31.09821         0.00906
C         18.15542        33.28222         0.78360
C         16.99856        33.94776         0.18115
C         18.31204        36.13495         0.11904
C         17.08156        35.37009        -0.12442
C         18.25011        37.60256         0.35727
C         17.02922        38.25388        -0.29323
C         18.19262        40.44934        -0.11000
C         16.96963        39.74791        -0.15647
C         18.20131        41.84952        -0.27441
C         16.96652        42.55113        -0.41612
C         18.17452        44.70582        -0.57097
C         16.92269        43.97170        -0.57519
C         18.18558        46.11578        -0.48559
C         16.95151        46.87971        -0.69215
C         18.10865        48.97932         0.23548
C         16.89659        48.28833        -0.35270
C         18.18824        50.42640        -0.27614
C         16.86632        51.14925        -0.10942
C         18.02436        53.23367         0.79359
C         16.84416        52.48760         0.23177
C         18.20598        54.54585         0.05906
C         20.66374         6.77850        -2.10523
C         20.67117         8.05180        -1.51726
C         19.46439         8.68680        -1.10020
C         20.72081        10.79665        -0.62425
C         19.44519         9.98839        -0.56385
C         20.75566        11.97085         0.32214
C         19.51009        12.60561         0.63508
C         20.77312        14.57786         1.54314
C         19.49286        13.92943         1.15628
C         20.80878        16.08971         1.72031
C         19.56345        16.73047         1.08157
C         20.79938        18.91179         1.18210
C         19.59541        18.23425         1.22116
C         20.87072        20.32883         1.41638
C         19.66086        20.91060         1.79645
C         20.85939        23.28990         0.59982
C         19.67401        22.96613         1.26918
C         20.82270        24.60935        -0.01145
C         19.63601        25.31601        -0.15454
C         20.94469        27.49944        -0.11920
C         19.65226        26.77128        -0.42366
C         20.86095        28.94152         0.26729
C         19.67426        29.77696        -0.20803
C         20.80280        31.77307         0.91717
C         19.65487        31.16126         0.48081
C         21.15219        33.17736         1.33834
C         19.14114        34.31272         1.28127
C         20.76987        36.13343         0.37006
C         19.52295        35.48076         0.42812
C         20.74985        37.55243         0.08397
C         19.54833        38.26673         0.04591
C         20.76073        40.47950        -0.14079
C         19.46548        39.72732         0.11930
C         20.64476        41.86126        -0.61023
C         19.44439        42.55890        -0.46868
C         20.64025        44.71022        -0.51696
C         19.40691        43.99396        -0.57531
C         20.61707        46.09910        -0.27091
C         19.39832        46.82831        -0.25198
C         20.63700        48.93659         0.11884
C         19.40878        48.24049        -0.01585
C         20.66234        50.41659         0.27060
C         19.37015        51.15704         0.33501
C         20.54727        53.24686         1.12921
C         19.31920        52.44198         0.74631
C         20.74074        54.37766         0.08755
C         19.44010        55.09997        -0.23371
C         20.85228        56.88906        -1.22489
C         19.57584        56.32194        -0.93124
C         20.96195        57.93791        -2.15340
C         23.06098         4.21762        -3.43770
C         21.86345         4.84434        -3.09062
C         23.12661         6.74964        -2.20774
C         21.87017         6.12021        -2.47358
C         23.15991         8.03132        -1.58155
C         21.94349         8.70129        -1.26769
C         23.21535        10.53181        -0.27858
C         21.98592         9.97099        -0.64791
C         23.24523        11.70301         0.66556
C         21.97917        12.52414         0.66251
C         23.34679        14.57883         1.27458
C         22.05382        13.83889         1.32615
C         23.35351        15.97628         1.29496
C         22.07179        16.69818         1.13917
C         23.33646        18.92372         0.94452
C         22.06550        18.17943         0.96974
C         23.37363        20.31391         0.97034
C         22.17670        21.14083         1.45726
C         23.28590        23.10052         0.30777
C         22.11366        22.53596         0.75094
C         23.26433        24.39555        -0.48799
C         22.09000        25.28391        -0.13969
C         23.45002        27.29263        -0.14524
C         22.16751        26.64678         0.03286
C         23.71271        28.52291         0.37823
C         21.87913        29.57080         0.89658
C         23.43242        31.74014         0.59604
C         22.07507        31.00799         1.19035
C         22.98311        33.03045        -0.34106
C         22.01889        33.88899         0.51201
C         23.23451        36.04966        -0.18944
C         22.12334        35.42404         0.65619
C         23.17480        37.49123        -0.45782
C         21.98593        38.25313        -0.23160
C         23.04288        40.30983        -1.04346
C         21.94773        39.66050        -0.45323
C         23.14411        41.80651        -1.22117
C         21.85400        42.58277        -1.04425
C         23.11953        44.62796        -0.48858
C         21.88680        44.01056        -0.68459
C         23.15762        46.03554        -0.02089
C         21.86089        46.79384         0.04794
C         23.11523        48.88046         0.48938
C         21.87139        48.25929         0.10299
C         23.06813        50.15605         1.12684
C         21.90517        51.03907         0.87683
C         23.01128        53.23967         1.32315
C         21.86016        52.48804         1.22639
C         23.10634        54.68775         0.98478
C         21.83025        55.39904         0.54314
C         23.29644        56.88108        -0.92510
C         22.04529        56.39515        -0.58060
C         23.40663        57.87491        -1.95142
C         22.22866        58.42833        -2.54195
C         23.60481        59.89152        -3.92893
C         22.35470        59.45512        -3.52233
C         24.29031         4.82719        -3.18644
C         25.58726         6.74810        -2.30111
C         24.34889         6.10099        -2.56666
C         25.63736         8.00501        -1.68115
C         24.40814         8.65909        -1.30476
C         25.70222        10.55164        -0.34009
C         24.43738         9.90470        -0.62863
C         25.74174        11.80236         0.29330
C         24.53555        12.49681         0.63732
C         25.82361        14.53741         1.33802
C         24.55255        13.82446         1.07215
C         25.81875        16.03861         1.37000
C         24.54765        16.75496         1.13064
C         25.77983        18.76912         0.32231
C         24.53303        18.12567         0.85963
C         25.74606        20.27512         0.30595
C         24.61852        20.98347         0.62873
C         25.83122        23.11342        -0.04376
C         24.63474        22.49998         0.66937
C         25.79520        24.50983        -0.42324
C         24.57174        25.14458        -0.55220
C         25.74462        27.38254        -1.13983
C         24.51042        26.58680        -0.87849
C         25.80922        28.82391        -0.75583
C         24.70022        29.45654        -0.12127
C         25.70543        31.61299        -0.48383
C         24.57911        30.87926        -0.04270
C         25.60536        33.09296        -0.70459
C         24.28100        33.81678        -0.66343
C         25.57229        35.96325        -1.12342
C         24.31912        35.31183        -0.59296
C         25.55713        37.44993        -1.37280
C         24.25728        38.14000        -1.09507
C         25.88059        40.52814        -1.18531
C         24.06901        39.47478        -1.49219
C         25.58449        41.76738        -0.54622
C         24.39584        42.51771        -0.79966
C         25.40980        44.59113         0.37254
C         24.33985        43.88931        -0.46023
C         25.64418        46.05574         0.10230
C         24.41831        46.85106        -0.26140
C         25.54345        48.76556         0.94773
C         24.34996        48.18189         0.45004
C         25.49447        50.03431         1.60224
C         24.20473        50.56239         1.83481
C         25.53160        53.06762         1.56360
C         24.23865        52.66494         1.80669
C         25.63202        54.17069         0.44949
C         24.47659        55.21599         0.64448
C         25.81751        56.67230        -0.96152
C         24.55538        56.54347        -0.12779
C         25.86775        57.63942        -1.94881
C         24.68876        58.31161        -2.41529
C         24.76873        59.31215        -3.39757
C         26.87165         8.66965        -1.42750
C         28.17490        10.60000        -0.66120
C         26.92842         9.91800        -0.79467
C         28.27156        11.85705        -0.05618
C         27.06167        12.41817         0.58664
C         28.34593        14.64206         0.85025
C         27.12640        13.83700         1.10360
C         28.36054        16.03495         0.99953
C         27.11577        16.78230         1.28263
C         28.34395        18.91695         0.56190
C         27.07667        18.23714         0.91805
C         28.28660        20.25615         0.11924
C         26.98047        20.90436        -0.29648
C         28.23519        23.06716        -0.56325
C         27.00442        22.40838        -0.20619
C         28.21609        24.48081        -0.82435
C         27.02443        25.18546        -0.79365
C         28.28125        27.38673        -1.34828
C         27.01214        26.60294        -1.26329
C         28.25697        28.87998        -1.28417
C         26.99249        29.55980        -0.98297
C         28.14232        31.74781        -1.15126
C         26.92145        30.96661        -0.84215
C         28.24027        33.13987        -0.65618
C         26.86610        33.89543        -0.52217
C         28.11465        36.03168        -0.81098
C         26.87710        35.30722        -0.82363
C         28.08694        37.43701        -0.83482
C         26.90618        38.23326        -1.40073
C         28.13227        40.37285        -0.46582
C         26.86108        39.62485        -0.78731
C         27.84265        41.43325         0.59414
C         26.64071        42.31395         0.32798
C         27.98508        44.50750         0.69407
C         26.68625        43.78691         0.59649
C         27.99727        45.86922         0.79478
C         26.77928        46.65638         0.61334
C         27.94163        48.66283         1.55062
C         26.78654        48.05681         0.96224
C         27.95803        50.10473         1.78947
C         26.70797        50.79438         1.85115
C         28.53443        52.98145         1.04655
C         26.61910        52.22817         1.95411
C         28.24515        54.08041         0.20946
C         27.01619        54.79544         0.17217
C         26.98673        55.93488        -0.64016
C         29.47347        12.59034         0.00821
C         30.73567        14.68545         0.29213
C         29.53309        13.94697         0.42198
C         30.77572        16.07586         0.47387
C         29.56043        16.79088         0.79378
C         30.86975        18.97302         0.86051
C         29.56055        18.20876         0.73464
C         30.73486        20.37148         0.26264
C         29.48166        20.96556        -0.14587
C         30.71233        22.98550        -0.98516
C         29.44698        22.33580        -0.56766
C         30.75914        24.45779        -1.23311
C         29.46940        25.20767        -1.17674
C         30.80359        27.34839        -1.25247
C         29.51982        26.68938        -0.82176
C         30.73078        28.79478        -1.77116
C         29.44578        29.54187        -1.42197
C         30.73004        31.74941        -1.14405
C         29.47253        31.02821        -1.43896
C         30.72412        33.18619        -1.06953
C         29.47623        33.88868        -0.88417
C         30.62035        36.01979        -0.61184
C         29.41153        35.31085        -0.74726
C         30.64514        37.48729        -0.62454
C         29.34418        38.20795        -0.69686
C         30.37771        40.10637         0.61503
C         29.32290        39.55505        -0.07140
C         30.23135        41.42498         1.36519
C         29.12739        42.23663         0.73838
C         30.64472        44.39302         0.73399
C         29.24796        43.72530         0.61395
C         30.56494        45.86356         1.13976
C         29.25756        46.60373         1.07458
C         30.30333        48.54404         2.42228
C         29.11797        47.91118         1.73878
C         30.41936        49.87282         1.70989
C         29.29907        50.68045         1.55419
C         29.43425        51.94221         0.85501
C         31.96231        16.80590         0.17602
C         33.32922        18.75768        -0.08868
C         32.08196        18.19553         0.29552
C         33.71424        20.11120         0.09621
C         31.83898        21.17779         0.29298
C         33.30501        23.09748        -0.58771
C         32.01532        22.35366        -0.55013
C         33.25844        24.48690        -0.85282
C         32.03682        25.18944        -1.01279
C         33.27623        27.34213        -1.39228
C         31.98463        26.62395        -1.20287
C         33.23935        28.83417        -1.39616
C         31.95045        29.57165        -1.31349
C         33.14336        31.39641        -0.28128
C         31.90254        30.91566        -0.97882
C         33.27393        33.52925        -1.25936
C         31.94183        33.98045        -0.95703
C         33.06614        36.01387        -0.13112
C         31.87368        35.33776        -0.52962
C         33.09541        37.46780         0.11110
C         31.84342        38.23471        -0.11075
C         32.74784        40.03424         1.35016
C         31.67480        39.46899         0.67916
C         32.57857        41.30727         2.08991
C         31.51040        42.18983         1.57902
C         32.86749        44.21816         1.97772
C         31.64432        43.54621         1.51804
C         32.83763        45.57361         2.20282
C         31.67008        46.42547         1.96338
C         31.55896        47.69327         2.45445
C         34.62295        20.90949        -0.57641
C         35.76331        23.07963        -0.63729
C         34.55341        22.36797        -0.57439
C         35.79803        24.49243        -0.73888
C         34.55812        25.17675        -1.25076
C         35.70508        27.36530        -0.76697
C         34.55275        26.66805        -1.03158
C         35.75845        28.82968        -0.80233
C         34.54255        29.56667        -1.23366
C         35.70391        31.81006        -0.62493
C         34.45645        31.03906        -0.93216
C         35.60770        33.24142        -0.20793
C         34.38400        33.99718        -0.47744
C         35.33548        35.91607         0.86597
C         34.23496        35.28416         0.10044
C         35.36648        37.37684         1.06836
C         34.18373        38.09643         0.88246
C         35.23894        40.12067         1.77949
C         34.07130        39.44017         1.31570
C         35.11082        41.49852         2.39349
C         33.72361        41.91955         2.78757
C         34.01549        43.37103         2.49840
C         36.94805        25.21838        -0.48532
C         38.07431        27.34871        -0.04486
C         36.95410        26.65751        -0.44397
C         38.00881        28.79508         0.35667
C         36.84402        29.50547        -0.30721
C         38.00296        31.60305         0.51841
C         36.91183        30.98271        -0.29157
C         37.91133        33.06217         0.79498
C         36.68583        33.81358         0.42537
C         37.86850        35.93447         1.26094
C         36.62473        35.16877         1.01014
C         37.78573        37.28392         1.56188
C         36.54117        38.02769         1.52380
C         36.44914        39.41402         1.83967
C         39.31363        29.56928         0.25019
C         40.48967        31.76197         0.60484
C         39.31950        30.91986         0.43693
C         40.40713        33.10093         0.87860
C         39.16409        33.83830         0.97703
C         39.11430        35.20256         1.18399
O         16.29195        46.53353        -1.97234
O         25.77347        15.25304         2.61539
O         29.34348        42.84893        -0.56393
O         10.20728        27.13999         2.00796
O         37.63444        32.05146         1.85710
O         33.32615        28.05487        -2.68209
O          9.88387        37.98626        -1.73554
O         27.11247        17.83318         2.31381
O         27.62802        33.42154         0.63114
O         12.29642        34.29605        -1.62723
O         17.57384        24.49393        -1.23289
O         22.91998        28.84657         1.49224
O         27.29748        12.70553         2.01467
O         25.34084        53.48080        -0.69963
O         21.64198        51.04408        -0.62050
O         30.23929        46.68465        -0.03133
O         34.52720        30.56245        -2.30549
O         24.78819        27.07024        -2.23248
O          8.31173        32.18870        -1.48685
O         32.89426        38.27145        -1.13287
O         36.75458        31.59258        -1.61911
O         24.06455        51.63429         2.74083
O         35.65375        35.21230         2.12290
O         20.49237        27.26958        -1.52040
O         12.96889        27.96134        -1.34899
O         13.78752        20.43145         0.23488
O         19.09779        34.56201         2.49355
O         33.10951        31.78861         0.87829
O         25.46642        36.51561        -2.49916
O         23.92206        55.41850         1.98488
O         27.79374        52.90434         2.25500
O         31.47213        22.15424        -1.91590
O         20.25406        40.29743         1.22558
O         22.54151        46.22415         1.27185
O         25.05775        40.10447        -2.23937
O         21.40931        13.88410         2.67658
O         21.96323        17.26306        -0.22042
O         30.19473        38.07453        -1.90384
O         17.84841        16.34230         3.00300
O         12.34160        42.40744        -1.59342
O         35.11250        42.80537         1.58359
O         26.32133        42.83683         1.68719
O         17.62415        27.19026        -1.67164
O         32.93103        20.79752         1.07088
O         16.55182        18.91946         2.91081
O         24.87557        33.38957        -1.94429
O         28.64770        31.61637        -2.50797
O         22.41304        42.28801        -2.38728
O         30.05282        24.87424        -2.46345
O         32.74512        41.26737         3.59649
O         27.71419        26.80505        -2.54512
O         19.74537        22.16835         2.41778
O         16.49521        35.73283        -1.45894
O         11.50568        31.54961         1.61664
O         17.90687        32.31801         1.85428
O         14.64684        29.79852        -2.02494
H         14.29963        28.95363        -2.39671
O         12.89884        37.65966         1.44067
H         13.76430        37.54118         1.90668
O         27.50888        40.64864         1.76592
H         26.99762        41.23825         2.36884
O         24.44292        47.10441        -1.70082
H         25.23186        47.64914        -1.90610
O         22.47066        21.43954         2.85973
H         21.65437        21.84150         3.23783
O         13.58227        44.71318         1.52580
H         14.38490        45.26895         1.62286
O         24.08966        32.34605         1.71043
H         23.47007        32.32593         2.48100
O         18.45762        50.31943        -1.69456
H         18.55892        51.22060        -2.06517
O         25.85102        18.29870        -1.08575
H         24.97605        18.47263        -1.49704
O         20.79878        16.40181         3.12279
H         21.12309        15.60594         3.60451
O         16.98153        13.51657         2.95854
H         17.16764        14.35901         3.43867
O         24.67821        57.60697         0.86151
H         24.34808        57.24532         1.71681
O         31.09951        19.10521         2.29045
H         31.92823        19.62643         2.39405
O         19.85913        30.05940        -1.61577
H         19.95101        29.18910        -2.07275
O         22.48314        35.77082         2.02027
H         21.89849        35.25330         2.62053
O         29.42871        26.79868         0.63554
H         30.29834        26.56079         1.02045
O         17.92563        49.06065         1.68310
H         17.97735        48.15520         2.05393
O         28.49616        40.96904        -1.73642
H         28.57561        40.23589        -2.38812
O         20.30785        53.80881         2.44524
H         20.65423        54.73997         2.46442
O         26.89418        20.67397        -1.74624
H         26.78163        19.69979        -1.87244
O         17.20120        38.06818        -1.71813
H         16.38489        38.35759        -2.17616
O         29.84976        41.09342         2.72856
H         29.02102        40.55565         2.68100
O         21.19943        53.79297        -1.14439
H         21.39301        52.82680        -1.03279
O         13.19763        33.51645         1.80873
H         13.87911        32.99573         2.28240
O         23.23946        11.08474         2.00539
H         23.25077        11.80836         2.66937
O         24.76248        44.72399         1.68772
H         24.96203        43.89795         2.18946
O         21.10944        33.46716         2.67417
H         20.35752        33.01321         3.11175
O         33.48176        32.81352        -2.37977
H         32.63713        32.57955        -2.81585
O         31.23933        44.43385        -0.58398
H         30.92177        43.64118        -1.07663
O         21.32538        56.13756         1.69085
H         22.11049        56.50664         2.15594
O         23.01256        23.96757        -1.87185
H         23.04070        24.76573        -2.44340
O         17.95553        18.95048        -0.35123
H         18.76141        19.18761        -0.85669
O         29.97784        48.78952         3.82951
H         29.25106        49.44771         3.85375
O         24.82662        22.86437         2.07775
H         24.12231        22.39586         2.59486
O         22.39329        32.56574        -1.54114
H         23.08496        32.57534        -2.24251
O         17.67675        53.52578         2.17688
H         18.52731        53.71003         2.65004
O         27.27083        38.39650        -2.79735
H         26.90148        37.61916        -3.28015
O         22.20603        31.05638         2.64102
H         22.74649        30.27329         2.89617
O         19.50573        16.38234        -0.32307
H         20.31687        16.75599        -0.74998
O         34.61388        25.00767        -2.70613
H         33.86455        25.50655        -3.09794
O         30.74644        28.71982        -3.21821
H         31.63753        28.37735        -3.47575
O         37.70558        28.78115         1.79943
H         36.90386        28.23307         1.93348
O         18.14855        37.79192         1.83201
H         18.86748        37.26375         2.24522
O         20.69463        11.43896        -1.95499
H         20.55193        10.72983        -2.61801
O         15.60270        37.48727         1.62191
H         16.48825        37.63031         2.04757
H          4.91105        31.22347         0.40263
H          4.91800        33.65422         0.13396
H          7.22566        27.03681         0.51604
H          6.17791        29.07813         0.72378
H          6.17518        35.79682         0.11302
H          7.21968        37.79840         0.26681
H         10.02242        22.72670         1.32467
H          8.84810        24.63688         0.23841
H          8.79493        40.11541         0.63079
H          9.70279        42.08254         0.43660
H         12.52165        18.42617         2.59625
H         11.13350        20.92413         2.20748
H         11.25487        44.27512         0.99440
H         12.24377        46.66932        -0.18154
H         14.81682        14.21593         1.14010
H         13.61057        16.32567         1.68907
H         13.49441        48.83854        -0.51694
H         14.70926        50.94411        -0.28271
H         17.31368        10.06150        -0.23675
H         16.09738        12.00896         0.61233
H         15.87286        53.00421         0.29510
H         17.29704        55.10564        -0.21391
H         19.70317         6.27328        -2.28642
H         18.51915         8.12902        -1.18649
H         18.67521        56.82016        -1.32248
H         20.05460        58.34642        -2.62256
H         23.03500         3.22880        -3.91687
H         20.90312         4.35008        -3.29590
H         23.69048        60.68053        -4.68891
H         21.44458        59.89049        -3.95923
H         25.22482         4.32099        -3.46759
H         26.52486         6.24696        -2.58497
H         26.82117        57.83681        -2.46389
H         25.75550        59.64085        -3.75389
H         27.80770         8.19359        -1.75614
H         29.07708        10.13515        -1.08647
H         29.00185        54.34493        -0.54935
H         27.93458        56.28129        -1.08766
H         30.39172        12.12806        -0.38462
H         31.64929        14.16171        -0.02596
H         31.38917        50.20983         1.31379
H         30.22288        52.02945         0.09205
H         32.83660        16.23384        -0.17330
H         34.03123        18.09140        -0.61599
H         33.72047        46.05849         2.65034
H         32.38580        48.10149         3.05748
H         35.40560        20.44224        -1.19285
H         36.70936        22.53414        -0.50126
H         35.88044        41.62397         3.19875
H         34.54041        43.91588         3.32579
H         37.86638        24.68755        -0.19020
H         38.98726        26.78654         0.20630
H         38.70878        37.83590         1.79833
H         37.35449        39.93600         2.18627
H         40.25670        29.00439         0.19060
H         41.48038        31.28659         0.54626
H         41.33930        33.66925         1.02158
H         40.05458        35.76207         1.31112
