         324
 CSIRO Nanostructure Databank - Neutral Graphene Oxide Data Set
C          1.11376         3.58376         0.69965
C         -0.06954         4.30285         0.81805
C          1.16733         6.40336         0.97794
C         -0.05043         5.69553         0.95216
C          1.22357         7.85227         1.02000
C          0.05002         8.63841         1.30755
C          1.19248        10.75164         0.79914
C          0.05861        10.00232         1.33495
C          1.31555        12.22714         0.91643
C          0.21761        13.00883         1.25770
C          1.40666        15.04669         0.66124
C          0.26940        14.40790         1.13762
C          1.36157        16.51443         0.39135
C          0.08121        17.13668        -0.03256
C          1.25798        19.03246        -1.11572
C          0.04208        18.34238        -0.62292
C          1.20138        20.44427        -1.66973
C         -0.03046        21.23716        -1.47147
C          1.25585        23.32779        -1.24747
C          0.00809        22.56515        -1.24291
C          1.23356        24.77500        -0.98905
C          0.01063        25.47399        -0.78685
C          1.17278        27.58850        -0.46382
C         -0.02550        26.83647        -0.55771
C          1.18006        28.99045        -0.19489
C          3.57776         3.52216         0.60818
C          2.36323         4.25021         0.73086
C          3.64616         6.35438         0.94761
C          2.38984         5.67669         0.87705
C          3.70480         7.78856         1.00194
C          2.46430         8.50082         0.90538
C          3.77325        10.65099         0.64657
C          2.49446         9.93760         0.62265
C          3.74788        12.08556         0.37514
C          2.54422        12.85482         0.53644
C          3.80780        14.92823        -0.00184
C          2.59341        14.28344         0.39009
C          3.94748        16.43976         0.14242
C          2.63242        17.21813         0.04000
C          3.74967        19.13488        -1.09415
C          2.57902        18.47329        -0.75857
C          3.76262        20.52062        -1.53634
C          2.48369        21.22599        -1.99143
C          3.68253        23.45916        -1.72193
C          2.43293        22.68541        -1.54758
C          3.70940        24.86725        -1.25269
C          2.44054        25.50577        -0.93997
C          3.61926        27.63426        -0.44432
C          2.41475        26.90801        -0.62810
C          3.62229        29.02464        -0.19574
C          2.36084        29.68890        -0.08445
C          6.04362         3.42863         0.57771
C          4.82035         4.15820         0.70061
C          6.06471         6.25277         1.14578
C          4.84475         5.59184         0.90937
C          6.11307         7.65534         1.33933
C          4.94900         8.48725         1.12772
C          6.18570        10.70111         0.64093
C          4.96066         9.95156         0.90575
C          6.15207        11.95508        -0.14642
C          4.92141        12.75110        -0.02364
C          6.24259        14.81554        -0.55199
C          4.97132        14.16255        -0.22728
C          6.19410        16.22366        -0.98679
C          5.01730        17.03873        -0.73264
C          6.25627        19.10308        -1.21636
C          5.01064        18.39663        -1.02862
C          6.21906        20.55838        -1.30367
C          4.96362        21.21570        -1.56752
C          6.27515        23.44049        -1.55501
C          4.99634        22.68790        -1.81311
C          6.21588        24.92403        -1.28592
C          4.89521        25.55024        -1.08157
C          6.16003        27.67521        -0.33531
C          4.88383        26.89485        -0.46963
C          6.09608        29.14861        -0.26298
C          4.85758        29.76081        -0.12927
C          8.51940         3.34583         0.64073
C          7.29291         4.03385         0.77171
C          8.62548         6.17865         1.18474
C          7.30235         5.44903         1.22058
C          8.62289         7.64306         1.22378
C          7.42554         8.20001         1.61039
C          8.68904        10.79749         0.66979
C          7.41636        10.30994         1.10344
C          8.71548        12.05701         0.11841
C          7.48004        12.70188        -0.32963
C          8.75295        14.86117        -0.60739
C          7.46782        14.16776        -0.51123
C          8.80475        16.25880        -0.86850
C          7.54691        16.97373        -1.19003
C          8.72145        19.17329        -0.95284
C          7.46488        18.42319        -1.09336
C          8.55028        20.59317        -0.56801
C          7.37880        21.29641        -1.02198
C          8.46700        23.43570        -0.34690
C          7.42207        22.73536        -0.95318
C          8.54466        24.88187        -0.37119
C          7.42354        25.58810        -0.74232
C          8.64950        27.75248        -0.38311
C          7.42432        27.07018        -0.91254
C          8.57474        29.17319        -0.31175
C          7.34805        29.84088        -0.31163
C         10.99401         3.30400         0.52731
C          9.80119         3.97782         0.70584
C         11.11717         6.24390         0.73594
C          9.83611         5.47004         0.70421
C         11.15588         7.71676         0.92359
C          9.84824         8.41188         0.83855
C         11.22949        10.56647         0.60481
C          9.89950         9.91698         0.64185
C         11.23552        12.03831         0.45393
C          9.97094        12.81150         0.17385
C         11.22374        14.86304        -0.43181
C          9.98442        14.19763        -0.34704
C         11.27421        16.26973        -0.66349
C         10.02919        16.95044        -0.81462
C         11.29264        19.10432        -0.46207
C         10.02958        18.43442        -0.88100
C         11.31976        20.24156         0.27597
C          9.39237        21.25265         0.27590
C         10.90917        23.35168         0.60553
C          9.52916        22.70011         0.36983
C         10.93265        24.83040         0.36444
C          9.79785        25.55413         0.01698
C         10.98824        27.75033         0.28404
C          9.81121        27.02278        -0.03941
C         11.06281        29.16172         0.13015
C          9.85285        29.97315        -0.28414
C         13.48927         3.38451         0.02576
C         12.30856         3.97200         0.63833
C         13.63604         6.24374         0.61106
C         12.39019         5.48674         0.86752
C         13.61212         7.64389         0.69293
C         12.36527         8.38781         0.77655
C         13.71072        10.54375         0.57971
C         12.41281         9.84683         0.64561
C         13.68685        11.98945         0.34122
C         12.51784        12.67822         0.13776
C         13.78353        14.85461        -0.35866
C         12.48380        14.08287        -0.35234
C         13.74002        16.33286        -0.42484
C         12.53925        16.99286        -0.66308
C         13.77016        19.25797        -0.47096
C         12.55008        18.49514        -1.01448
C         13.65402        20.61610         0.13199
C         12.39225        21.22710         0.31877
C         13.45173        23.37928         0.72700
C         12.24101        22.61883         0.59003
C         13.44829        24.82451         0.93561
C         12.14401        25.51880         0.88005
C         13.45224        27.72882         0.88255
C         12.15382        27.04992         0.84054
C         13.46885        29.16326         0.69710
C         12.25270        29.83651         0.36468
C         15.67912         3.52842        -1.00650
C         14.65148         4.12201        -0.22660
C         15.97041         6.22124        -0.15582
C         14.78959         5.51993         0.16342
C         16.16748         7.57314         0.39860
C         14.89122         8.37211         0.78503
C         16.25234        10.55342         0.77664
C         14.91503         9.85655         0.70055
C         16.22556        12.04489         0.65720
C         14.91232        12.78449         0.70286
C         16.14985        14.91968         0.28756
C         14.98718        14.19109         0.16704
C         16.15823        16.34313         0.06516
C         14.98618        17.02393        -0.23195
C         16.05497        19.04755         0.78440
C         15.02424        18.50927        -0.19650
C         16.07367        20.59588         0.95800
C         14.80040        21.30781         0.53344
C         15.95598        23.40720         1.08797
C         14.69666        22.69262         0.76674
C         15.92576        24.88070         1.36093
C         14.61021        25.56596         1.20638
C         15.84407        27.77147         1.50767
C         14.60628        27.01159         1.18111
C         15.88608        29.22337         1.18315
C         14.66267        29.86762         0.82662
C         17.67883         3.73108        -2.43279
C         16.74903         4.28661        -1.49910
C         17.97188         6.41457        -1.61693
C         16.91158         5.64944        -1.07118
C         18.28405         7.75714        -1.05694
C         17.42392         8.32029         0.03473
C         18.87628        10.42566        -0.01265
C         17.54796         9.78288         0.43410
C         19.17701        11.82927         0.33120
C         17.31795        12.83573         0.89196
C         18.61421        14.86689         0.27222
C         17.40738        14.23910         0.54031
C         18.66198        16.32349         0.21654
C         17.41821        17.06451         0.19458
C         18.60497        19.21013         0.18141
C         17.38936        18.43867         0.36573
C         18.59829        20.65860         0.40347
C         17.28268        21.32008         0.38259
C         18.50004        23.54080         0.72935
C         17.23120        22.80900         0.56497
C         18.44438        24.95654         0.97331
C         17.20898        25.61357         1.22340
C         18.46661        27.81154         1.52121
C         17.19392        27.03052         1.59087
C         18.38820        29.35481         1.35401
C         17.06420        29.94031         1.13828
C         18.69444         4.49711        -2.95410
C         19.97654         6.63989        -3.04534
C         18.85785         5.85290        -2.55101
C         20.12307         7.94847        -2.75011
C         19.07054         8.69834        -1.96939
C         20.40619        10.89173        -2.00440
C         19.62381         9.90838        -1.22852
C         20.57007        12.17663        -1.59800
C         19.92956        12.69847        -0.40619
C         21.06120        14.82116         0.59693
C         19.92050        14.21693        -0.20020
C         21.03826        16.15642         0.83036
C         19.88832        16.96744         0.44807
C         21.08973        19.27699         0.71074
C         19.97268        18.42970         0.27547
C         21.00639        20.63743         0.72474
C         19.77148        21.37903         0.51860
C         20.92359        23.60329         0.67078
C         19.72551        22.84576         0.63196
C         20.89131        24.98346         0.78607
C         19.68328        25.69467         0.94226
C         20.80232        27.91402         0.75156
C         19.69240        27.14147         1.05882
C         20.73002        29.33238         0.61189
C         19.56259        30.01942         0.78801
O          2.04027        17.37153         1.39729
O         10.54285        12.75882         1.55434
O         14.88641        19.21909        -1.45292
O         16.40476        27.35324         2.78320
O          5.63858        26.96391         0.82365
O         10.21990        20.50499         1.10341
O         17.03351        22.18985        -0.76145
O         18.65771         7.59573         0.34730
O          8.10523         5.61998         2.44454
O         13.27724        14.21061        -1.59281
O         12.48885         4.58531         1.99028
O         19.38822        18.83772        -0.99588
O         18.48463        12.30141         1.44862
O          9.57429        19.00269        -2.16659
O         18.64062        28.70754         2.64374
O          6.55472        24.39057        -2.63214
O          1.63890        10.29740        -0.51567
O         10.39669         5.97394        -0.54831
O          6.81817        11.96965        -1.43843
O         17.15329        10.02319         1.80711
O          6.79477        16.41409        -2.30329
O          9.71371         9.00393        -0.52233
O          1.07918        19.30545        -2.57843
O         11.85365        26.30901         2.07659
O          9.96156        23.11867         1.70660
O         20.09055         9.60250         0.10984
O          7.46067         9.45761         2.20300
O         16.00320        23.87334         2.47282
O         15.77480         7.75421         1.77789
O          4.33215        23.16799        -3.00717
O          4.46684        16.62095         1.49863
H          3.68457        16.84408         2.06120
O         15.67398        18.43818         2.03613
H         15.94089        19.05306         2.75909
O         16.19263        20.81061         2.39971
H         15.95306        21.73671         2.62763
O          7.40307        27.33021        -2.35895
H          7.26841        26.47875        -2.83130
O          2.55205        21.27272        -3.44171
H          2.26699        20.38732        -3.76340
O         12.55458        18.59360        -2.44797
H         13.49618        18.59093        -2.73443
O         18.10191         9.23293        -2.92421
H         17.96782         8.56846        -3.63250
O         20.06629        14.73564        -1.56137
H         20.09575        15.71579        -1.51582
O         14.69523        12.99358         2.16235
H         14.84891        12.13417         2.61230
O          9.72599        31.13402         0.54609
H          9.59721        30.83719         1.47028
H          1.08974         2.49078         0.58428
H         -1.03377         3.77618         0.79398
H         -1.00504         6.23478         1.01675
H         -0.85498         8.11515         1.64715
H         -0.80047        10.54250         1.75707
H         -0.72419        12.53975         1.57218
H         -0.62681        14.99109         1.38868
H         -0.86001        16.61906         0.20249
H         -0.93033        18.76968        -0.90534
H         -0.99637        20.71369        -1.48996
H         -0.93945        23.09329        -1.07717
H         -0.94405        24.93465        -0.83406
H         -0.99213        27.34481        -0.43091
H          0.21855        29.51163        -0.07984
H          3.53421         2.43231         0.46383
H          2.34529        30.77132         0.10889
H          5.99428         2.35925         0.32260
H          4.80347        30.85572        -0.02881
H          8.49062         2.26542         0.43087
H          7.35150        30.93974        -0.24999
H         10.98839         2.21811         0.34754
H         10.03386        30.35779        -1.32833
H         13.39489         2.38478        -0.42467
H         12.26885        30.93181         0.26853
H         15.57648         2.47609        -1.30957
H         14.67146        30.95419         0.65673
H         17.55780         2.68251        -2.73986
H         17.02411        30.98567         0.79498
H         19.40405         4.06612        -3.67472
H         20.72985         6.12628        -3.66142
H         20.99077         8.50408        -3.13366
H         20.81379        10.57880        -2.97608
H         21.14543        12.87288        -2.22226
H         21.93370        14.21369         0.87578
H         21.89524        16.65229         1.31018
H         22.02280        18.79403         1.03661
H         21.90242        21.19976         1.02280
H         21.89620        23.10465         0.57085
H         21.84448        25.52821         0.78360
H         21.74408        27.43018         0.45944
H         21.61908        29.85810         0.23559
H         19.48156        31.07464         0.48904
