         404
 CSIRO Nanostructure Databank - Neutral Graphene Oxide Data Set
C          1.33132         1.98166        -1.11474
C          1.27622         3.37875        -1.05066
C          2.52493         1.30535        -0.89280
C          2.42464         4.13987        -0.75906
C          1.21166         6.32555        -0.88581
C          1.20196         7.71575        -0.85807
C          2.40134         5.59197        -0.69933
C          2.38216         8.46063        -0.68021
C          1.13858        10.65527        -0.64617
C          1.12700        12.04203        -0.62385
C          2.35106         9.92672        -0.61649
C          2.32050        12.78441        -0.47119
C          1.15631        15.00347        -0.59315
C          1.17526        16.39255        -0.63416
C          2.34081        14.24866        -0.45273
C          2.38140        17.10766        -0.46936
C          2.42720        18.54441        -0.66617
C          3.70651         2.01946        -0.58176
C          3.65493         3.45625        -0.51119
C          4.93680         1.33138        -0.39772
C          4.82625         4.19301        -0.18577
C          3.61408         6.31391        -0.48423
C          3.61038         7.74785        -0.51963
C          4.83501         5.60589        -0.23987
C          4.85243         8.45372        -0.45127
C          3.55432        10.65339        -0.48491
C          3.53156        12.05882        -0.35221
C          4.84728         9.92773        -0.77244
C          4.76473        12.79861         0.00120
C          3.57603        14.95578        -0.31741
C          3.57398        16.37611        -0.26041
C          4.82038        14.25566        -0.14619
C          4.81853        17.07825         0.05647
C          3.58274        19.25537        -0.62356
C          4.83737        18.65332        -0.15180
C          6.11216         2.00498        -0.04571
C          6.03001         3.45414         0.22285
C          7.36100         1.35638         0.05025
C          7.34932         4.23585         0.36940
C          6.08351         6.33347        -0.14341
C          6.07323         7.77645        -0.32916
C          7.29036         5.67065         0.06319
C          7.32840         8.48928        -0.42294
C          6.09560        10.62010        -0.31923
C          6.09140        12.04282         0.01221
C          7.30929         9.94573        -0.42126
C          7.33034        12.80821        -0.13599
C          6.05701        14.93492        -0.07181
C          6.09370        16.36845        -0.04020
C          7.31516        14.21685        -0.07310
C          7.30703        17.08239        -0.05787
C          6.12915        19.24000        -0.43003
C          7.32022        18.52812        -0.22491
C          8.58438         2.06298         0.12780
C          8.61612         3.49434         0.18013
C          9.82571         1.36497         0.01750
C          9.83191         4.17012         0.01309
C          8.55528         6.41127         0.08298
C          8.55713         7.81609        -0.34931
C          9.87313         5.64619         0.08922
C          9.80999         8.46398        -0.59840
C          8.53676        10.66777        -0.40555
C          8.54687        12.09191        -0.32523
C          9.75842         9.93329        -0.78044
C          9.76772        12.82932        -0.28859
C          8.55000        14.94338        -0.08358
C          8.55538        16.37049        -0.07294
C          9.78901        14.22547        -0.12742
C          9.79163        17.07753        -0.11011
C          8.57132        19.20080        -0.29226
C          9.79460        18.51678        -0.18452
C         11.02890         2.03034        -0.12674
C         11.05693         3.46060        -0.16057
C         12.29147         1.22479        -0.33961
C         12.29438         4.17647        -0.30191
C         11.09159         6.34431        -0.36778
C         11.03101         7.76013        -0.61510
C         12.27685         5.59959        -0.46686
C         12.31481         8.46877        -0.87764
C         11.04446        10.71050        -0.82902
C         11.02387        12.07104        -0.23044
C         12.34630         9.98233        -0.90054
C         12.32351        12.80408        -0.07131
C         11.04926        14.94463        -0.08357
C         11.03612        16.37788        -0.09262
C         12.28513        14.27000        -0.09322
C         12.26699        17.09289        -0.09952
C         11.03413        19.21502        -0.17600
C         12.26007        18.53708        -0.11887
C         13.56220         2.01298        -0.12329
C         13.53769         3.43903        -0.23502
C         14.75066         1.34300         0.12735
C         14.78181         4.12512        -0.16244
C         13.58404         6.28803        -0.80871
C         13.58228         7.78215        -0.60021
C         14.73595         5.60630        -0.10790
C         14.78507         8.51061        -0.49306
C         13.59036        10.70324        -0.54663
C         13.58884        12.09788        -0.35125
C         14.80548         9.98291        -0.47962
C         14.79640        12.82705        -0.25015
C         13.52314        14.97239        -0.12969
C         13.50893        16.39731        -0.10485
C         14.76932        14.26604        -0.14888
C         14.75139        17.10982        -0.12235
C         13.50296        19.23521        -0.08189
C         14.73116        18.56512        -0.07395
C         15.99935         2.03306         0.24159
C         15.98515         3.44985         0.04758
C         17.21794         1.38238         0.53554
C         17.27817         4.17012         0.01230
C         15.97669         6.38974         0.11212
C         15.98729         7.82520        -0.20036
C         17.28794         5.68022         0.05146
C         17.18104         8.55355         0.20844
C         16.00982        10.70833        -0.32226
C         16.03276        12.12226        -0.25701
C         17.28495         9.97013        -0.23052
C         17.27103        12.85535        -0.07286
C         15.99120        14.98633        -0.12952
C         15.96399        16.41035        -0.15041
C         17.24738        14.27527        -0.04126
C         17.24976        17.15754        -0.39137
C         15.96173        19.26801         0.05434
C         17.20055        18.60890         0.03291
C         18.45618         2.08322         0.66363
C         18.51151         3.49750         0.43427
C         19.65623         1.42620         1.00490
C         19.70921         4.22613         0.56485
C         18.51712         6.37129         0.45015
C         18.45602         7.82971         0.60502
C         19.71655         5.68090         0.55302
C         19.72613         8.57167         0.68412
C         18.56473        10.70088         0.03318
C         18.49990        12.16900         0.14075
C         19.72579         9.97898         0.61044
C         19.68720        12.86394         0.43588
C         18.47172        15.00120         0.14832
C         18.47722        16.42772         0.10156
C         19.68831        14.30127         0.40653
C         19.66165        17.14361         0.29738
C         18.40885        19.28704         0.23174
C         19.65988        18.60088         0.29041
C         20.88437         2.11862         1.05889
C         20.93839         3.53559         0.81682
C         22.08032         1.41462         1.39824
C         22.19091         4.22635         0.76994
C         20.94943         6.40231         0.83036
C         20.90497         7.82010         0.96753
C         22.20510         5.69943         0.79914
C         22.03946         8.54523         1.55494
C         20.88226        10.74006         0.92266
C         20.87962        12.13230         0.77581
C         21.93261        10.05769         1.77789
C         22.16691        12.85438         0.79944
C         20.90504        15.02556         0.57817
C         20.90030        16.44900         0.50527
C         22.15179        14.33503         0.74912
C         22.12225        17.17201         0.55087
C         20.86636        19.29238         0.39648
C         22.12319        18.61265         0.47346
C         23.30636         2.04283         1.31973
C         23.35982         3.40554         0.88512
C         24.57452         1.27428         1.68252
C         24.66268         3.87303         0.53705
C         23.39266         6.49489         0.90586
C         23.39325         7.81502         1.56112
C         24.66916         6.05085         0.50298
C         24.67041         8.56175         1.68141
C         23.31300        10.75331         1.85405
C         23.42260        12.14716         1.30392
C         24.63270        10.00497         2.00540
C         24.62968        12.94605         1.52042
C         23.34975        15.03496         0.80209
C         23.36418        16.47186         0.65210
C         24.61960        14.26889         0.88570
C         24.56855        17.20187         0.58782
C         23.33510        19.31603         0.45831
C         24.59465        18.63501         0.44178
C         25.89596         1.98894         1.43600
C         25.86258         3.35050         0.96895
C         27.08940         1.30673         1.50843
C         27.10503         4.17568         0.83955
C         25.87351         6.55823         0.98574
C         25.88798         7.91169         1.49474
C         27.04272         5.66183         1.20681
C         27.18349         8.59905         1.62278
C         25.94503        10.77500         2.00380
C         25.90317        12.31286         1.90095
C         27.21883        10.05959         1.70631
C         27.19927        13.04326         1.64498
C         25.89427        15.02007         0.72879
C         25.84916        16.50813         0.75209
C         27.19465        14.38532         1.05343
C         27.11764        17.21867         0.42558
C         25.80212        19.32389         0.23511
C         27.05849        18.60689        -0.19529
C         28.36482         1.94334         1.25074
C         28.38110         3.43197         1.07923
C         29.52690         1.23197         1.11613
C         29.64112         4.14367         1.47734
C         28.32308         6.38081         1.56201
C         28.35650         7.86595         1.53840
C         29.63690         5.63826         1.52235
C         29.68377         8.52229         1.53622
C         28.40304        10.75118         1.52512
C         28.48904        12.23488         1.49006
C         29.69990        10.04655         1.44550
C         29.65195        12.88986         0.85262
C         28.36330        14.99037         0.65323
C         28.32015        16.38135         0.13335
C         29.62277        14.27276         0.60600
C         29.59609        17.14345        -0.04300
C         28.36768        19.31649         0.07953
C         29.57351        18.62870         0.08591
C         30.85818         1.88086         0.98000
C         30.91515         3.39660         1.18097
C         31.97312         1.28754         0.24666
C         32.04031         4.13067         0.60680
C         30.80723         6.37070         0.98527
C         30.84512         7.74568         1.00254
C         31.87384         5.57837         0.33652
C         31.99167         8.47792         0.48353
C         30.87841        10.73715         0.89423
C         30.86367        12.12940         0.63785
C         32.17024         9.93932         0.88827
C         32.04540        12.84986         0.26510
C         30.82954        14.99069         0.27132
C         30.85454        16.40241         0.14578
C         32.05947        14.26117         0.17059
C         32.06558        17.11943         0.10851
C         30.83775        19.27785         0.18659
C         32.06487        18.56959         0.11978
C         33.15057         2.00765         0.01619
C         33.16510         3.45265         0.19001
C         34.32574         1.38233        -0.50665
C         34.41685         4.20132        -0.08447
C         33.00856         6.33585        -0.27437
C         32.99163         7.79897        -0.16994
C         34.37131         5.71469        -0.28531
C         34.05314         8.49389        -0.91766
C         33.18547        10.64503         0.02052
C         33.36544        12.12109         0.28180
C         33.86574         9.94257        -0.91198
C         34.49369        12.85954        -0.41922
C         33.28733        14.98012        -0.02513
C         33.30043        16.40481         0.01980
C         34.51193        14.25518        -0.27633
C         34.50954        17.14067        -0.14509
C         33.30475        19.24988         0.09363
C         34.53623        18.56150        -0.05354
C         35.50938         2.08774        -0.81280
C         35.57934         3.51432        -0.63985
C         36.67321         1.41527        -1.27626
C         36.72505         4.25023        -0.98555
C         35.53641         6.41685        -0.84174
C         35.43612         7.85206        -1.21926
C         36.72470         5.70947        -1.02136
C         36.73499         8.60896        -1.33528
C         35.73830        10.91852        -1.32019
C         35.71819        12.22158        -0.78249
C         36.83977        10.04973        -1.25469
C         36.97054        12.87327        -0.62851
C         35.75372        14.95443        -0.39174
C         35.73136        16.42237        -0.48613
C         36.96782        14.26941        -0.41172
C         37.05510        17.17724        -0.48634
C         35.79643        19.25928        -0.03766
C         37.02685        18.61165        -0.13737
C         37.85219         2.11575        -1.54859
C         37.89155         3.54738        -1.42354
C         39.04135         1.42614        -1.97305
C         39.08205         4.25909        -1.71918
C         37.93407         6.42337        -1.34945
C         37.94142         7.86741        -1.35376
C         39.12117         5.69462        -1.62407
C         39.22319         8.54840        -1.41243
C         38.10657        10.71562        -1.04545
C         38.16922        12.11365        -0.80566
C         39.31203         9.96218        -1.21188
C         39.43854        12.80378        -0.75209
C         38.25592        14.93829        -0.03512
C         38.29878        16.41594        -0.31209
C         39.49247        14.20113        -0.48373
C         39.49769        17.08707        -0.17181
C         38.29133        19.24723         0.04303
C         39.49409        18.53675        -0.03031
C         40.19481         2.11045        -2.23366
C         40.25242         3.53941        -2.10858
C         41.44308         4.24721        -2.36403
C         40.36011         6.37521        -1.84088
C         40.41698         7.81089        -1.63908
C         41.49657         5.62838        -2.21513
C         41.65441         8.50134        -1.64895
C         40.56968        10.63719        -1.20863
C         40.63604        12.07288        -0.98527
C         41.73265         9.86524        -1.43459
C         41.85860        12.79089        -0.97026
C         40.71812        14.89334        -0.45728
C         40.74986        16.34339        -0.18616
C         41.89896        14.15408        -0.72785
C         41.92772        17.05007        -0.02604
C         40.75951        19.19005         0.13588
C         41.92526        18.46477         0.14769
O         27.44819         5.85592         2.60865
O         23.85469        10.46675         3.16321
O          4.72826        18.01805         1.15886
O         31.97377         5.79610        -1.14875
O          9.32319         6.19797         1.33226
O          6.56044         3.83588         1.53230
O         29.77413         4.83702         2.75066
O         34.38477         7.98710        -2.25007
O         12.42561         9.22391        -2.15381
O         15.06279         6.07396         1.24295
O         18.21654        10.19775        -1.33466
O         34.55299        10.56439        -1.95904
O         10.27905        10.53666        -2.04794
O         25.33420        14.39253        -0.47658
O         28.13189        12.90008         2.75229
O         17.44842         4.96358        -1.22610
O         17.50039         8.31613         1.63493
O         22.53876         7.87431         2.75499
O         24.73768         4.95165        -0.35046
O         36.35521        16.88353        -1.75068
O         27.97415         3.85000        -0.29084
O         26.69972        17.10959         1.81135
O         34.71538         5.12685         1.02181
O         25.98967        11.62495         3.18601
O         30.00077         9.31390         2.72794
O         11.64841        12.16173         1.09478
O         28.84717        16.59252        -1.21445
O         31.29212         2.49599         2.26225
O          5.35071        12.33118         1.26857
O         23.08471        12.18934        -0.15572
O          4.93502         9.99535        -2.26002
H          5.70956         9.45703        -2.53260
O         12.27515         0.03682         0.45859
H         12.24205         0.30150         1.40061
O         32.64870         9.87569         2.27516
H         31.86114         9.63407         2.82827
O         24.57692        -0.00158         1.02689
H         24.66403         0.14836         0.06331
O         13.82426         6.08073        -2.23892
H         13.26716         6.71791        -2.73558
O         17.39212        17.18998        -1.86027
H         18.21306        17.68827        -2.06133
O         38.27034        14.86082         1.44761
H         39.16236        15.14067         1.74670
O         26.93401        18.44084        -1.64520
H         27.66110        17.83017        -1.92592
O         21.35469        10.21063         3.10095
H         21.96097         9.74505         3.72347
O         33.82173        12.21827         1.68343
H         33.39726        11.47766         2.19141
H          0.41852         1.41649        -1.34928
H          0.31483         3.87491        -1.23890
H          2.56022         0.20826        -0.95285
H          0.26070         5.80140        -1.04934
H          0.24133         8.22914        -0.99713
H          0.17827        10.12904        -0.72899
H          0.16116        12.55813        -0.70680
H          0.19049        14.49180        -0.69983
H          0.23849        16.94605        -0.79184
H          1.49436        19.04120        -0.97251
H          4.96453         0.24228        -0.55245
H          3.59702        20.31101        -0.93362
H          7.39627         0.26319        -0.07164
H          6.17426        20.26169        -0.83632
H          9.81978         0.26490         0.01411
H          8.57689        20.29582        -0.39928
H         12.29381         0.87719        -1.41301
H         11.02524        20.31450        -0.21588
H         14.72959         0.24878         0.24009
H         13.49045        20.33523        -0.05426
H         17.21612         0.29327         0.69126
H         15.93538        20.35557         0.22436
H         19.64500         0.34440         1.20338
H         18.39742        20.37705         0.38600
H         22.02141         0.35298         1.67726
H         20.85963        20.39258         0.38722
H         24.51318         1.05078         2.78444
H         23.32031        20.41307         0.37735
H         27.08106         0.23052         1.73478
H         25.77103        20.41966         0.13025
H         29.49879         0.13382         1.19439
H         28.37478        20.41250         0.18329
H         31.89125         0.24966        -0.10886
H         30.86316        20.37635         0.24742
H         34.31783         0.29056        -0.64291
H         33.31072        20.34907         0.15015
H         36.64894         0.32262        -1.40138
H         35.77921        20.34681         0.13162
H         39.00703         0.33165        -2.07408
H         38.32005        20.32789         0.24972
H         41.10222         1.57351        -2.54650
H         42.34346         3.69526        -2.66996
H         42.44992         6.13699        -2.41042
H         42.58775         7.94699        -1.81306
H         42.72101        10.34365        -1.44458
H         42.80595        12.26679        -1.15610
H         42.87287        14.66255        -0.73788
H         42.89674        16.53230        -0.03870
H         40.78261        20.28263         0.25740
H         42.88796        18.97885         0.27796
