         410
 CSIRO Nanostructure Databank - Neutral Graphene Oxide Data Set
C         27.82634        27.61270        -0.41047
C         27.80679        29.03163        -0.20099
C         26.64503        29.78876        -0.09888
C         27.81066        31.78060         0.76019
C         26.65007        31.13631         0.34241
C         27.85055        33.06263         1.44982
C         26.66487        33.90815         1.48473
C         27.80606        36.13316         1.34745
C         26.63591        35.27566         1.39634
C         27.85908        37.41454         0.66678
C         26.71313        38.00003         0.07426
C         27.94407        40.04174        -0.47370
C         26.75502        39.27006        -0.47479
C         27.97139        41.42354        -0.91719
C         26.84355        42.05101        -1.50655
C         27.99920        44.19072        -1.56870
C         26.86998        43.38682        -1.86230
C         28.07071        45.56941        -2.00951
C         30.28494        27.51526        -0.15836
C         28.99604        26.89989        -0.40751
C         30.32085        28.88807         0.08332
C         29.10457        29.69630        -0.05380
C         30.32669        31.59748         1.18975
C         29.09949        31.13626         0.47011
C         30.35853        32.95286         1.75854
C         29.05225        33.51833         2.00340
C         30.22590        36.34426         1.81023
C         28.96789        35.71377         1.98623
C         30.30501        37.57815         1.11193
C         29.09010        38.13983         0.59899
C         30.36945        40.18101         0.04039
C         29.13010        39.45001         0.03659
C         30.36709        41.56700        -0.25086
C         29.14208        42.19900        -0.69508
C         30.22936        44.44028        -0.48845
C         29.11597        43.59301        -0.95224
C         30.25675        45.89687        -0.90916
C         29.15806        46.34818        -1.78569
C         32.76417        24.66715        -0.52120
C         31.57239        25.41092        -0.58489
C         32.75753        27.35431         0.42712
C         31.51324        26.73885        -0.17543
C         32.86190        28.84244         0.19814
C         31.60499        29.62556         0.18772
C         32.89668        31.65476         1.15598
C         31.62903        30.90539         0.96909
C         32.89330        32.98471         1.66818
C         31.58845        33.50328         2.12351
C         32.62165        36.45896         2.16254
C         31.41802        35.80722         2.33668
C         32.78245        37.62049         1.37671
C         31.56536        38.22729         0.94081
C         32.83029        40.25097         0.37509
C         31.59257        39.55388         0.41706
C         32.81256        41.65297         0.10665
C         31.57126        42.30167        -0.10899
C         32.81231        44.54162        -0.20230
C         31.51154        43.77398        -0.09113
C         32.79082        45.93926        -0.69551
C         31.56934        46.60820        -0.94033
C         32.78724        48.67748        -1.28688
C         31.58665        47.97908        -1.24219
C         35.35068        23.06063        -0.45478
C         35.20491        24.42442         0.06590
C         33.99268        25.24921        -0.13395
C         35.29341        27.34061         0.26274
C         34.05046        26.62746         0.16222
C         35.30750        28.80637         0.39907
C         34.11141        29.53166         0.58354
C         35.35206        31.61823         0.91243
C         34.11043        30.93162         0.85909
C         35.32916        33.05766         1.08718
C         34.14495        33.74913         1.55864
C         35.33708        35.96037         1.16420
C         34.37509        35.15443         1.81166
C         35.30142        37.41761         1.04485
C         34.07493        38.18748         1.04637
C         35.29811        40.25356         0.40871
C         34.07144        39.55311         0.61381
C         35.29673        41.65793         0.07931
C         34.05789        42.38266        -0.00140
C         35.28496        44.47095        -0.48023
C         34.06863        43.77014        -0.26051
C         35.29000        45.88641        -0.73393
C         34.02644        46.61772        -0.85778
C         35.27681        48.76891        -1.24806
C         34.00813        48.01012        -1.12013
C         35.32516        50.19037        -0.87693
C         37.77527        23.05512         0.00073
C         36.54107        22.40782        -0.39501
C         37.79959        24.45603         0.16223
C         36.52856        25.18007         0.33634
C         37.77420        27.31968        -0.08646
C         36.50496        26.63673         0.21908
C         37.75649        28.83421        -0.06771
C         36.52774        29.52287         0.36777
C         37.82857        31.60942         0.65429
C         36.55577        30.91540         0.62050
C         37.79738        33.05326         0.92327
C         36.51195        33.76574         0.85608
C         37.80932        35.99073         0.49247
C         36.49368        35.21934         0.64254
C         37.79239        37.44740         0.69359
C         36.52503        38.12466         0.74905
C         37.76540        40.25581         0.37169
C         36.52716        39.54507         0.53423
C         37.76548        41.63680         0.00583
C         36.51469        42.33942        -0.15226
C         37.73644        44.43768        -0.66897
C         36.51757        43.74735        -0.45363
C         37.76056        45.84293        -0.77856
C         36.51968        46.55018        -0.85789
C         37.80774        48.73171        -0.79142
C         36.57597        47.99892        -1.13778
C         37.77613        50.12413        -0.62076
C         36.50256        50.81525        -0.63132
C         40.31268        20.29099        -0.49932
C         39.15461        20.89433        -0.08360
C         40.10999        23.06410         0.58458
C         38.99960        22.31909         0.16783
C         40.24949        24.46695         0.40564
C         39.03180        25.18587         0.23276
C         40.28745        27.28163         0.28487
C         39.06335        26.60951         0.12706
C         40.35301        28.76437         0.16371
C         39.06403        29.55283         0.02817
C         40.30819        31.65532         0.52052
C         39.04024        30.95986         0.46988
C         40.31813        33.03982         0.54797
C         39.10019        33.81492         0.79647
C         40.26728        35.98982         0.56466
C         39.09243        35.27951         0.58462
C         40.28130        37.43629         0.60355
C         39.01273        38.14411         0.67622
C         40.23022        40.28876         0.43835
C         39.00943        39.57936         0.54869
C         40.20873        41.62976         0.01418
C         38.99485        42.29945        -0.23655
C         40.24396        44.45337        -0.82186
C         38.97702        43.64084        -0.95463
C         40.26023        45.84115        -0.80832
C         39.01434        46.57073        -0.80151
C         40.26077        48.70792        -0.56145
C         39.02782        47.98975        -0.71265
C         40.23510        50.11942        -0.34298
C         38.99813        50.83420        -0.33739
C         40.18975        52.90117         0.19433
C         39.01365        52.23009        -0.06847
C         42.50065        20.63131        -1.73655
C         41.57922        20.97419        -0.72401
C         42.85527        23.07642        -0.34923
C         41.89132        22.12862         0.02124
C         42.80586        24.46183         0.17229
C         41.52440        25.13692         0.43313
C         42.74597        27.26080         0.84617
C         41.49830        26.55108         0.49840
C         42.75938        28.75511         0.96957
C         41.54907        29.51077         0.61254
C         42.81706        31.62712         0.69443
C         41.55757        30.89508         0.57576
C         42.81279        33.02281         0.69212
C         41.58372        33.77078         0.41173
C         42.78814        36.03148         0.70010
C         41.55886        35.27924         0.44694
C         42.77259        37.42509         0.62037
C         41.49936        38.11840         0.59711
C         42.79799        40.25202         0.37869
C         41.51633        39.60246         0.85289
C         42.76299        41.70342         0.14908
C         41.48712        42.27405        -0.38623
C         42.79031        44.44496        -1.01484
C         41.49672        43.68707        -0.89153
C         42.74043        45.91270        -0.93713
C         41.53266        46.58388        -0.82665
C         42.71484        48.76385        -0.55194
C         41.51180        48.02745        -0.66313
C         42.70738        50.13961        -0.19156
C         41.45700        50.82327        -0.10821
C         42.65922        52.90118         0.41145
C         41.43393        52.21890         0.17444
C         43.62257        21.43427        -1.96477
C         45.01815        23.56093        -1.53350
C         43.81370        22.66077        -1.29933
C         45.23712        24.41115        -0.26937
C         43.98785        25.17322         0.10471
C         45.31855        27.34178         0.39030
C         44.08287        26.54462         0.61839
C         45.33208        28.72911         0.55715
C         44.10416        29.48182         0.91956
C         45.29418        31.64125         0.60305
C         44.07213        30.93834         0.70465
C         45.31614        33.07275         0.71749
C         44.04718        33.75596         0.95899
C         45.29224        36.01115         0.71419
C         44.03268        35.31256         0.95806
C         45.25998        37.42950         0.55040
C         44.02593        38.14022         0.57363
C         45.28102        40.27531         0.19092
C         44.01230        39.57407         0.39284
C         45.31465        41.66492        -0.00944
C         44.05415        42.42703        -0.05573
C         45.34214        44.54186        -0.54272
C         44.09738        43.76091        -0.72994
C         45.30573        45.93082        -0.72343
C         44.03282        46.61584        -1.03729
C         45.25404        48.81841        -0.44544
C         44.01030        48.14003        -0.84330
C         45.19433        50.15912        -0.02242
C         43.93413        50.84638         0.04669
C         43.86342        52.23461         0.35547
C         47.49053        23.26818        -1.43773
C         46.28939        22.79352        -1.82926
C         47.63512        24.55670        -0.77246
C         46.50236        25.24286        -0.35888
C         47.70599        27.38349        -0.19251
C         46.52035        26.64822        -0.01367
C         47.75257        28.80313        -0.02458
C         46.53625        29.49762         0.34185
C         47.77663        31.66384         0.50243
C         46.52133        30.90300         0.49228
C         47.74826        33.14411         0.45378
C         46.50749        33.82871         0.64638
C         47.73056        35.98641         0.51844
C         46.49704        35.27498         0.64939
C         47.73035        37.41338         0.43223
C         46.50333        38.13525         0.40268
C         47.75418        40.24613         0.05370
C         46.51385        39.54959         0.21869
C         47.75234        41.64608        -0.16199
C         46.53886        42.37384        -0.17841
C         47.79791        44.50619        -0.43465
C         46.56126        43.81196        -0.36474
C         47.78708        45.96553        -0.65557
C         46.50290        46.70996        -0.62567
C         47.79484        48.90274        -0.54959
C         46.49252        48.10771        -0.52839
C         47.63799        50.24502         0.11675
C         46.43935        50.81531         0.34367
C         50.22176        24.52781        -1.11197
C         48.96908        25.16715        -0.62214
C         50.14970        27.43217        -0.91323
C         48.97429        26.66318        -0.40474
C         50.18745        28.87570        -0.62148
C         48.96565        29.50691        -0.23918
C         50.14651        31.74600        -0.53792
C         49.03561        30.93833         0.06564
C         50.16049        33.19392        -0.19691
C         48.93887        33.85202         0.32328
C         50.19773        35.97453         0.35828
C         48.95402        35.27652         0.39646
C         50.20330        37.38962         0.45306
C         48.97214        38.11108         0.37752
C         50.24377        40.19816         0.23425
C         48.99879        39.52601         0.20023
C         50.32582        41.60711        -0.16262
C         49.01397        42.36241        -0.40679
C         50.28038        44.51443        -0.16588
C         49.03441        43.83180        -0.32869
C         50.30452        45.93968        -0.10603
C         49.07395        46.70425        -0.42728
C         50.30681        48.81599        -0.06666
C         48.97334        48.12817         0.09456
C         51.37524        25.20848        -1.24876
C         52.68107        27.46147        -1.10371
C         51.42290        26.69638        -1.25419
C         52.63098        28.84300        -0.91349
C         51.40578        29.55584        -0.75555
C         52.68640        31.74468        -0.38358
C         51.45339        31.05631        -0.94803
C         52.67095        33.14122        -0.07436
C         51.45233        33.88154        -0.04107
C         52.67165        35.95091         0.48684
C         51.44077        35.25696         0.26063
C         52.64067        37.34061         0.74505
C         51.43849        38.08446         0.63128
C         52.65431        40.26225         0.73696
C         51.44532        39.52312         0.58869
C         52.70383        41.66863         0.53487
C         51.53152        42.38049         0.15506
C         52.71774        44.52248         0.33986
C         51.50663        43.79472         0.08352
C         52.72395        45.94776         0.32169
C         51.49257        46.65578         0.10397
C         51.45636        48.11227        -0.00080
C         55.11989        27.43115        -0.89576
C         53.96672        26.79208        -1.19745
C         55.06730        28.83416        -0.34559
C         53.93252        29.62916        -0.99624
C         55.12506        31.69633        -0.16752
C         53.89307        31.04259        -0.43181
C         55.13415        33.08884         0.15795
C         53.90590        33.82045         0.20182
C         55.14583        35.90757         0.72421
C         53.91266        35.22398         0.48357
C         55.15630        37.31864         1.02894
C         53.87163        38.01226         1.16665
C         55.16602        40.25593         1.11148
C         53.86906        39.57423         1.18831
C         55.16657        41.69152         0.94810
C         53.94282        42.38449         0.70810
C         55.15126        44.53114         0.76754
C         53.93368        43.80847         0.59761
C         55.13315        45.95342         0.72397
C         53.95717        46.63695         0.52656
C         56.36320        29.59535        -0.44609
C         56.36146        30.93964        -0.31359
C         56.34485        33.79781         0.42234
C         56.34946        35.14868         0.68434
C         56.32215        38.07527         1.19465
C         56.32349        39.48286         1.24172
C         56.36888        42.44436         1.05828
C         56.36101        43.82043         0.98405
O         32.38265        29.45992        -1.04870
O         36.99765        35.60267        -0.68670
O         43.43427        29.16539         2.19444
O         32.12289        44.36599         1.09427
O         53.70220        38.77514         2.40173
O         43.47516        26.64756         1.95034
O         41.67390        34.54881        -0.86215
O         35.72367        24.61611         1.42331
O         33.67912        35.82595         2.82067
O         43.61096        43.88191        -2.10204
O         29.80893        45.49790         0.43042
O         49.76614        32.69409        -1.58750
O         30.84283        30.64509         2.20036
O         31.51219        34.58331         3.02880
O         39.90259        29.29765        -1.13859
O         44.10329        47.52775        -2.17334
O         41.47500        42.53862        -1.83245
O         49.23537        25.74784         0.71348
O         48.78942        31.20551         1.48591
O         36.03104        48.40137        -2.45209
O         50.51083        27.18821        -2.31730
O         49.80317        41.83374        -1.52325
O         43.99708        34.53680         2.21165
O         43.35004        42.51177         1.24760
O         37.64225        28.10695        -1.32941
O         48.63036        46.44417        -1.79658
O         41.16511        22.37465         1.19627
O         38.54015        33.47286         2.14101
O         28.93943        34.62193         2.87078
O         29.31865        30.86556        -0.94432
O         51.60713        31.19632        -2.39823
H         51.04079        31.96595        -2.65920
O         45.46031        23.45285         0.80366
H         45.56885        23.95265         1.63991
O         38.89036        43.29987        -2.38632
H         39.74940        42.86702        -2.61706
O         32.57065        27.26483         1.89152
H         32.63904        26.31890         2.14301
O         41.54682        39.75423         2.32408
H         42.38191        39.35248         2.64626
O         44.74125        24.45410        -2.63952
H         44.60719        23.91356        -3.44524
O         54.22226        29.78054        -2.40742
H         53.44991        30.24945        -2.80238
O         48.68099        48.03691         1.51745
H         49.49095        47.72977         1.97609
O         54.72778        28.72907         1.07044
H         55.44698        28.23886         1.51993
O         48.13607        49.14264        -1.93573
H         48.24863        48.25666        -2.35905
H         26.87090        27.09327        -0.57560
H         25.67434        29.30161        -0.27249
H         25.67720        31.63030         0.47116
H         25.69439        33.39482         1.39891
H         25.65066        35.74679         1.25610
H         25.76083        37.45225         0.07903
H         25.82915        39.69330        -0.88724
H         25.93661        41.46603        -1.71025
H         25.99779        43.84377        -2.35133
H         27.24334        45.95107        -2.62627
H         28.95211        25.81525        -0.57607
H         29.22164        47.33895        -2.25795
H         32.73203        23.60324        -0.79215
H         30.67133        24.90753        -0.96238
H         32.77358        49.75472        -1.49949
H         30.64544        48.51801        -1.41278
H         34.47675        22.55919        -0.89483
H         34.38399        50.74484        -0.75369
H         36.59344        21.36460        -0.73732
H         36.47691        51.88146        -0.37063
H         40.25501        19.23526        -0.80887
H         38.24305        20.27683        -0.07606
H         40.17343        53.97995         0.40573
H         38.07548        52.79963        -0.06021
H         42.33785        19.73301        -2.34860
H         42.63540        53.97782         0.63307
H         44.34730        21.11493        -2.72768
H         44.78679        52.80170         0.53084
H         48.40122        22.70595        -1.69086
H         46.23594        21.85906        -2.40774
H         48.55263        50.79037         0.39224
H         46.40211        51.80573         0.81802
H         50.23355        23.43227        -1.21403
H         50.34070        49.90878        -0.18274
H         52.29470        24.65764        -1.49693
H         52.40937        48.65455        -0.07288
H         56.08664        26.90895        -0.96569
H         53.99370        25.74554        -1.53462
H         56.07475        46.50299         0.86629
H         53.97763        47.73452         0.52105
H         57.31046        29.04382        -0.55115
H         57.31813        31.48097        -0.32808
H         57.30336        33.26220         0.41866
H         57.30992        35.64391         0.88084
H         57.30002        37.57410         1.19169
H         57.30335        39.97895         1.27893
H         57.32102        41.92630         1.23400
H         57.29807        44.38421         1.09808
