         232
 CSIRO Nanostructure Databank - Neutral Graphene Oxide Data Set
C        -11.07803         0.60101         0.07696
C         -9.87723         1.40775         0.20512
C         -8.55974         0.76470         0.58915
C         -7.52010         1.23346        -0.47548
C         -6.20345         0.51676        -0.31438
C         -4.87100         1.21762        -0.51210
C         -3.79800         0.70150         0.44586
C         -2.47843         1.38898         0.45757
C         -1.34034         0.73088         0.92784
C         -0.06381         1.46085         1.13753
C          1.26415         0.75324         1.38921
C          2.55326         1.42029         1.00778
C          3.75011         0.69892         0.97671
C          4.95242         1.35590         0.44388
C          6.29885         0.72337         0.47466
C          7.43038         1.48370        -0.10605
C          8.67495         0.80007        -0.61480
C          9.92981         1.47327        -0.07905
C         11.12258         0.67928         0.13206
C         -9.86955         2.74023        -0.08646
C         -8.63109         3.49927        -0.26981
C         -7.40739         2.74334        -0.47982
C         -6.18551         3.39611        -0.66963
C         -4.93504         2.72137        -0.49599
C         -3.67900         3.38097        -0.42516
C         -2.47982         2.74486        -0.02202
C         -1.12661         3.39642        -0.25228
C         -0.04799         2.89082         0.69097
C          1.26137         3.60248         0.63541
C          2.53668         2.84625         0.73076
C          3.70681         3.56137         0.48219
C          4.95738         2.85991         0.22898
C          6.22798         3.59574         0.26004
C          7.44566         2.87456         0.02940
C          8.69575         3.60874         0.03558
C          9.91864         2.84182         0.08486
C         -8.63146         4.87541        -0.25924
C         -7.51637         5.65904        -0.89907
C         -6.20801         4.86015        -0.97478
C         -4.90362         5.59282        -0.96174
C         -3.62521         4.80521        -0.84261
C         -2.35926         5.56490        -0.66749
C         -1.13848         4.90424        -0.24348
C          0.00771         5.66462        -0.16574
C          1.29014         4.92924        -0.06675
C          2.55134         5.70402        -0.01874
C          3.76726         4.99837         0.40746
C          4.96012         5.68662         0.48241
C          6.21957         4.98688         0.42210
C          7.45109         5.72677         0.30990
C          8.66363         5.00674         0.16389
C         -7.33045         7.10822        -0.47865
C         -6.12261         7.77484        -0.45720
C         -4.88653         7.01094        -0.53209
C         -3.66904         7.56030        -0.15627
C         -2.40678         7.01233        -0.47049
C         -1.20992         7.77894        -0.50337
C          0.00704         7.09243        -0.39682
C          1.31004         7.82027        -0.69537
C          2.53871         7.16819        -0.09455
C          3.67665         7.86148         0.17979
C          4.91899         7.17476         0.72881
C          6.20403         7.87164         0.34582
C          7.39190         7.16025         0.26262
C         -6.10163         9.24812        -0.54708
C         -5.04980        10.11098        -0.68081
C         -3.65806         9.72909        -0.42650
C         -2.49180        10.03963        -1.04638
C         -1.18862         9.22891        -1.02555
C          0.03134         9.95000        -0.47727
C          1.23170         9.30190        -0.37434
C          2.47256         9.98913        -0.08567
C          3.67282         9.31974         0.09713
C          4.94769         9.98992         0.18281
C          6.13919         9.30167         0.23321
C        -11.12159        -0.72505         0.32800
C         -9.97527        -1.45064         0.98729
C         -8.62418        -0.77563         0.69838
C         -7.47171        -1.58216         0.18871
C         -6.20908        -0.83700        -0.16480
C         -4.94121        -1.50527         0.12963
C         -3.86299        -0.75526         0.78604
C         -2.61028        -1.50858         1.12477
C         -1.35429        -0.70871         1.29272
C         -0.05329        -1.48122         1.33811
C          1.24235        -0.75516         1.45314
C          2.53944        -1.51328         1.36209
C          3.84478        -0.75736         1.33630
C          5.17575        -1.56349         1.20329
C          6.34775        -0.75909         0.61390
C          7.39041        -1.45494        -0.19886
C          8.68744        -0.73251        -0.46903
C          9.96062        -1.49022        -0.24855
C         11.16073        -0.67922         0.07375
C         -9.98264        -2.95008         0.77365
C         -8.85269        -3.71418         0.46306
C         -7.66682        -3.04611        -0.02367
C         -6.61717        -3.87212        -0.41285
C         -4.71333        -2.80470        -0.18193
C         -3.69810        -3.66287         0.38408
C         -2.50291        -2.97416         0.83490
C         -1.31045        -3.65186         0.93971
C         -0.02350        -2.87108         0.72085
C          1.26698        -3.62064         0.96610
C          2.46614        -2.97275         1.07196
C          3.76102        -3.70979         0.92711
C          5.01085        -2.96917         0.63269
C          6.11927        -3.65842         0.17094
C          7.35388        -2.93497        -0.24387
C          8.63202        -3.68730        -0.29362
C          9.90402        -2.96513         0.15106
C         -8.85289        -5.15825         0.48862
C         -7.66747        -5.90760         0.35146
C         -6.46743        -5.19318         0.04073
C         -5.14012        -5.76530         0.31860
C         -3.82878        -5.04225         0.35166
C         -2.65605        -5.85712         0.75531
C         -1.33870        -5.12844         1.00321
C         -0.05857        -5.88149         0.79011
C          1.22333        -5.10731         0.77732
C          2.35000        -5.65506        -0.06366
C          3.68952        -5.12831         0.40524
C          4.85911        -5.72047        -0.26170
C          6.07277        -5.03071        -0.26525
C          7.28923        -5.70805        -0.71287
C          8.57242        -5.02731        -0.50377
C         -7.58834        -7.35308         0.27124
C         -6.38201        -8.00476         0.07900
C         -5.10628        -7.30398         0.35407
C         -3.80830        -7.94745         0.05805
C         -2.61180        -7.26636         0.26576
C         -1.34811        -7.88220        -0.05048
C         -0.11500        -7.22084         0.13261
C          1.11719        -7.85824        -0.21422
C          2.34474        -7.15834        -0.19201
C          3.56077        -7.78250        -0.57710
C          4.73701        -7.04355        -0.76875
C          5.87541        -7.58649        -1.59505
C          7.20723        -6.97392        -1.22731
C         -6.28838        -9.38308        -0.34121
C         -5.08921        -9.97564        -0.61345
C         -3.81917        -9.29142        -0.46281
C         -2.61541        -9.89965        -0.78231
C         -1.36338        -9.22726        -0.60035
C         -0.16690        -9.86269        -0.92558
C          1.10190        -9.22940        -0.72703
C          2.28533        -9.87626        -1.03859
C          3.60395        -9.29354        -0.61234
C          4.81098        -9.84034        -1.33021
C          5.86591        -9.09333        -1.67947
O          3.77585        -9.70638         0.79346
H          3.04573        -9.30382         1.31133
O          0.00375        -2.61756        -0.73368
H          0.40171        -3.39810        -1.18150
O         -3.61877         8.74254         0.58672
O          4.79321         1.91843        -0.90045
O          0.35627         3.75745         1.78824
O         -8.16618         1.28148         1.86670
H         -7.57058         0.61355         2.27896
O          0.86126        -5.87281         1.95172
O         -4.38258         0.84997        -1.84804
H         -4.69902         1.52001        -2.48989
O          9.97211        -3.02290         1.58043
H          9.85547        -3.95093         1.86913
O         -7.65874        -1.28670         1.67015
O          0.55861        -1.31742         2.63214
O          2.11840        -5.08752        -1.39750
H          2.78595        -5.47137        -2.00768
O          5.62418        -1.86281         2.54798
H          4.81631        -1.96851         3.10684
O         -0.92457         9.06186        -2.45389
H         -0.06135         8.58310        -2.55776
O          9.42282        -1.31659        -1.59916
O         -2.15052        -5.64340         2.10853
O          8.67924         1.08061        -2.04983
H          9.15771         0.33058        -2.47663
O          0.51389         1.33901         2.48072
O        -10.19371        -1.31050         2.42577
H         -9.32956        -1.51203         2.85240
O          4.82973         7.30579         2.19235
H          4.88267         8.26264         2.40221
O          3.25171        -1.14944         2.61005
O         -5.17585        -6.54077         1.58428
O          2.06838         5.03959        -1.29734
O          1.48620         7.70237        -2.15341
H          1.63982         6.74087        -2.32864
O         -8.08385         0.83695        -1.76223
H         -7.50264         1.18375        -2.47101
O         -2.78097         5.02183        -2.04049
O          5.59280        -7.10549        -2.96661
H          6.39109        -7.27738        -3.50982
O         -5.54355         5.22721        -2.24272
O         -0.71010         2.98490        -1.59290
H         -1.30396         3.45875        -2.22216
O          3.87264        -4.87420         1.82400
O          6.84628         0.09519         1.69285
O         -7.99918         5.81595        -2.28084
H         -7.18436         5.90075        -2.83440
O          6.93877        -2.10799        -1.42578
O         -2.15292        -1.12379         2.45744
O         -5.54895        -3.37002        -1.15268
O         -4.28694         0.26049         1.74273
H         12.09620        -1.20920         0.30631
H         12.04171         1.22350         0.40186
H         10.85236         3.36613         0.34391
H          9.61179         5.56604         0.14408
H          8.32867         7.71026         0.07773
H          7.08483         9.86208         0.17001
H          4.96267        11.08731         0.10541
H          2.45985        11.09013        -0.05981
H         -0.01785        11.03665        -0.30329
H         -2.51886        10.79046        -1.85114
H         -5.27153        11.15480        -0.95620
H         -7.10350         9.68599        -0.69565
H         -8.25514         7.70808        -0.47456
H         -9.57058         5.41129        -0.05295
H        -10.81803         3.26052        -0.29305
H        -11.97308         1.10446        -0.32210
H        -12.05606        -1.28265         0.16561
H        -10.89516        -3.47066         1.10460
H         -9.79725        -5.67764         0.70876
H         -8.52678        -7.92379         0.19682
H         -7.22160        -9.94940        -0.47769
H         -5.06607       -11.01861        -0.96216
H         -2.60949       -10.92432        -1.18306
H         -0.18859       -10.89195        -1.31364
H          2.25569       -10.89603        -1.45172
H          4.84586       -10.93244        -1.47095
H          6.73572        -9.57078        -2.16051
H          8.12439        -7.49735        -1.54212
H          9.49278        -5.63299        -0.53092
H         10.80068        -3.49412        -0.28779
