         470
 CSIRO Nanostructure Databank - Neutral Graphene Oxide Data Set
C         39.34407        50.82562        -4.10395
C         38.41958        51.61916        -4.76406
C         38.85109        53.42592        -3.21869
C         38.17076        52.92805        -4.31855
C         41.19973        49.08379        -2.59689
C         40.99548        50.47461        -2.25301
C         40.05845        51.31094        -2.98127
C         40.53204        53.16592        -1.38771
C         39.80531        52.63922        -2.53003
C         40.18505        54.38831        -0.76632
C         42.61672        48.69887        -0.60999
C         41.99661        48.25972        -1.86912
C         42.57744        50.18989        -0.32965
C         41.76183        51.03415        -1.22940
C         42.41292        52.92365         0.21381
C         41.59766        52.39935        -0.83708
C         41.96192        54.08675         0.83973
C         40.85324        54.81472         0.37283
C         45.05915        45.84369         0.01641
C         43.96567        46.52008        -0.42308
C         44.88991        48.62664         0.70195
C         43.71298        47.88866         0.02702
C         44.89999        50.11301         0.67280
C         43.72092        50.84691         0.35855
C         44.85538        52.94809         0.95416
C         43.66589        52.23987         0.57810
C         44.91334        54.37985         1.21755
C         43.80660        55.12994         1.69367
C         45.04528        57.19304         1.66550
C         43.87406        56.50180         1.94726
C         47.38804        44.26537         0.85437
C         47.28305        45.68968         1.17610
C         46.12657        46.48651         0.73730
C         47.37928        48.57631         1.17421
C         46.14531        47.87361         0.89405
C         47.33515        50.06443         1.23517
C         46.08511        50.80630         0.93932
C         47.33844        52.95975         0.86440
C         46.09527        52.23761         0.94875
C         47.37799        54.35818         0.84657
C         46.15397        55.07955         1.08878
C         47.40917        57.21881         0.93331
C         46.18613        56.50032         1.22107
C         47.40200        58.62405         0.78371
C         49.82815        44.32601         1.11144
C         48.57962        43.62451         0.95332
C         49.87980        45.71131         1.21552
C         48.62207        46.45487         1.41850
C         49.89298        48.66930         1.51202
C         48.59058        47.91851         1.28613
C         49.88273        49.99762         0.73069
C         48.63436        50.79512         1.08500
C         49.90456        52.92650         0.49270
C         48.58607        52.20720         0.62161
C         49.87738        54.39490         0.61786
C         48.64411        55.07278         0.73767
C         49.85373        57.23319         0.64546
C         48.63171        56.50706         0.77864
C         49.82434        58.67709         0.52252
C         48.56677        59.32699         0.54246
C         52.26758        41.41778         1.47807
C         51.11769        42.08776         1.28952
C         52.35629        44.29190         0.88325
C         51.06963        43.53333         0.93395
C         52.36592        45.76562         1.04097
C         51.13534        46.46143         1.14420
C         52.36345        48.59830         1.21462
C         51.14678        47.87889         1.20244
C         52.37743        50.07734         1.13673
C         51.17027        50.78816         0.91105
C         52.39197        52.92073         0.77491
C         51.17334        52.18883         0.75161
C         52.38240        54.37455         0.60598
C         51.11831        55.10346         0.58828
C         52.31284        57.30258         0.36645
C         51.07401        56.52017         0.55827
C         52.30244        58.76471         0.82899
C         51.02667        59.43154         0.38945
C         52.25594        61.44973        -0.24143
C         51.06235        60.76831        -0.05257
C         55.02000        40.00335         1.98341
C         54.84270        41.28228         1.28381
C         53.59120        42.09668         1.50177
C         54.85368        44.26926         0.78937
C         53.61583        43.56281         1.23301
C         54.87566        45.74012         1.04201
C         53.59907        46.45728         1.14742
C         54.83444        48.57246         1.60706
C         53.57968        47.86895         1.28965
C         54.84514        50.09691         1.67717
C         53.59511        50.80518         1.18118
C         54.90078        52.96511         0.91851
C         53.60951        52.21134         0.98682
C         54.86603        54.40381         0.46664
C         53.60119        55.07033         0.50237
C         54.84023        57.31416         0.64593
C         53.59706        56.54736         0.32436
C         54.83491        58.81234         0.62663
C         53.55375        59.51370         0.42166
C         54.79389        61.50879        -0.47313
C         53.52127        60.81739        -0.01755
C         54.84539        63.00096        -0.28965
C         57.43090        39.98238         1.46410
C         56.22021        39.36791         1.96980
C         57.41890        41.32922         1.07604
C         56.11675        41.98816         0.84217
C         57.40653        44.17774         0.76915
C         56.11300        43.48011         0.66258
C         57.40273        45.63709         1.15232
C         56.08271        46.38034         1.05237
C         57.37111        48.56012         1.09198
C         56.14732        47.81294         1.41784
C         57.35538        49.96539         1.11207
C         56.15309        50.68075         1.20266
C         57.37419        52.52047         0.17257
C         56.17184        52.12809         0.94207
C         57.29175        54.60439        -0.16043
C         56.04740        55.16885         0.28310
C         57.30921        57.27862         0.45459
C         56.11219        56.60068         0.42796
C         57.35619        58.73384         0.06969
C         56.09956        59.52446         0.33299
C         57.31449        61.58691        -0.20336
C         56.08132        60.85583         0.01019
C         57.28578        62.92304        -0.56740
C         56.02010        63.64405        -0.46440
C         59.90172        37.16851         1.52850
C         58.71732        37.86717         1.64312
C         59.90312        39.97770         1.22363
C         58.68314        39.27159         1.46164
C         59.88397        41.39371         0.96832
C         58.64001        42.04394         0.84859
C         59.82586        44.20821         0.20729
C         58.58554        43.48952         0.67497
C         59.75496        45.71043         0.38726
C         58.58481        46.37216         0.57079
C         59.78579        48.53744         0.32898
C         58.42495        47.85353         0.26054
C         59.90301        49.93998         0.81270
C         58.67822        50.77470         1.27729
C         59.81654        52.83658         0.05480
C         58.61833        52.05992         0.44520
C         59.78385        54.36416        -0.09415
C         58.53833        55.13445         0.09498
C         59.91015        57.30718         0.32354
C         58.59312        56.54464         0.52435
C         59.90665        58.76238         0.13978
C         58.64516        59.47032         0.39171
C         59.85951        61.59749        -0.36143
C         58.61817        60.95788         0.10244
C         59.78875        62.93382        -0.86892
C         58.51439        63.59326        -0.96605
C         59.54887        65.41227        -2.17970
C         58.42207        64.84311        -1.59860
C         62.56597        35.73042         1.46050
C         62.33057        37.07762         0.93762
C         61.11650        37.85653         1.30862
C         62.44218        39.98332         1.23222
C         61.12577        39.24911         1.19557
C         62.35363        41.43870         0.88014
C         61.15226        42.11902         0.81914
C         62.31445        44.25672         0.38219
C         61.14692        43.55740         0.56474
C         62.32004        45.72226         0.12815
C         61.02751        46.45471         0.17631
C         62.22882        48.57002        -0.53756
C         60.89506        47.81856        -0.46111
C         62.29863        50.02267        -0.16985
C         61.15872        50.71276         0.50368
C         62.36567        52.88024        -0.15437
C         61.14374        52.20022         0.33017
C         62.38516        54.33793         0.01220
C         61.07932        55.09872         0.16237
C         62.31686        57.23790        -0.26563
C         61.12159        56.56055        -0.03389
C         62.31337        58.68909        -0.35436
C         61.08071        59.43660        -0.19152
C         62.29350        61.56138        -0.74684
C         61.06669        60.87577        -0.42699
C         62.29403        62.96290        -1.09069
C         60.98465        63.58062        -1.32243
C         62.71577        65.96050        -1.83588
C         60.78758        64.78075        -2.04798
C         62.70170        67.35261        -1.70672
C         64.88522        35.69559         0.61677
C         63.73517        35.07487         1.24059
C         64.83495        37.08380         0.33755
C         63.57876        37.83218         0.45422
C         64.85038        39.97152         0.42592
C         63.61593        39.28890         0.57184
C         64.89144        41.38758         0.53079
C         63.65761        42.12920         0.83429
C         64.83568        44.28305        -0.00964
C         63.63828        43.63784         0.58843
C         64.72235        45.63835        -0.49236
C         63.52808        46.37002        -0.45254
C         64.69854        48.52043        -0.77957
C         63.50928        47.80007        -0.64600
C         64.79128        49.95617        -0.39640
C         63.57785        50.75136        -0.20830
C         64.80206        52.92433        -0.54085
C         63.57590        52.16524        -0.29264
C         64.77678        54.33242        -0.60109
C         63.59213        55.09221        -0.34850
C         64.78113        57.24198        -0.62905
C         63.56057        56.50098        -0.43819
C         64.76515        58.66382        -0.62568
C         63.51609        59.38700        -0.55080
C         64.75124        61.52290        -0.72189
C         63.51417        60.82473        -0.68581
C         64.74388        62.95183        -0.78965
C         63.53910        63.67069        -1.09385
C         64.77198        65.82621        -0.63291
C         63.66031        65.13935        -1.18887
C         64.76365        67.22739        -0.43837
C         63.67355        67.97601        -0.92881
C         67.37857        32.89018         0.70183
C         66.24811        33.61308         0.89597
C         67.26943        35.62582        -0.11173
C         66.11804        34.98481         0.47395
C         67.09576        37.01726        -0.71573
C         65.99832        37.81085        -0.04356
C         67.30840        39.90100        -0.17452
C         66.03594        39.19503         0.06868
C         67.36990        41.38676        -0.04362
C         66.18083        42.19585         0.51776
C         67.25104        44.27499        -0.48614
C         66.04380        43.59083        -0.09321
C         67.23025        45.62540        -0.85503
C         65.92612        46.27909        -1.03705
C         67.22807        48.53048        -1.34483
C         65.90747        47.81632        -1.19858
C         67.26221        50.03524        -1.15652
C         66.06726        50.71926        -0.56923
C         67.26355        52.86784        -0.72027
C         66.05034        52.20884        -0.64844
C         67.31070        54.31243        -0.96109
C         66.00120        55.08031        -0.93248
C         67.24279        57.23915        -0.73748
C         66.02706        56.55093        -0.73985
C         67.24207        58.66759        -0.68988
C         65.99544        59.37261        -0.67054
C         67.21623        61.50367        -0.51169
C         65.99131        60.80458        -0.64277
C         67.16449        62.91802        -0.37571
C         65.97947        63.62625        -0.54434
C         67.08526        65.69640         0.37798
C         66.09739        65.12573        -0.61022
C         66.96598        67.09501         0.76693
C         65.87801        67.86849         0.27683
C         66.91442        69.85109         1.24347
C         65.88219        69.25261         0.53359
C         70.05614        32.00499         1.44402
C         69.91297        33.06761         0.54440
C         68.55839        33.43394        -0.04602
C         69.60752        35.51946        -0.97780
C         68.44022        34.92081        -0.29692
C         69.55629        37.03584        -1.34206
C         68.37882        37.79286        -0.89738
C         69.65471        39.88822        -1.12805
C         68.43159        39.15902        -0.81331
C         69.66816        41.30842        -1.10327
C         68.35150        42.06439        -1.01566
C         69.67320        44.18934        -0.88112
C         68.50219        43.53579        -0.67177
C         69.74713        45.67354        -0.60685
C         68.45506        46.39003        -0.96980
C         69.76797        48.52075        -0.86339
C         68.48043        47.75508        -1.16592
C         69.75760        49.98245        -1.28784
C         68.53176        50.71471        -0.95852
C         69.85402        52.89997        -0.77843
C         68.54396        52.12803        -0.62806
C         69.78715        54.38231        -0.89295
C         68.58627        55.04395        -0.81246
C         69.79350        57.23352        -0.89496
C         68.54483        56.50849        -0.45809
C         69.73377        58.69187        -0.97010
C         68.46802        59.39596        -0.69023
C         69.71043        61.49961        -0.28899
C         68.48085        60.80236        -0.52706
C         69.69435        62.94172         0.02485
C         68.39418        63.68174        -0.06281
C         69.25752        65.45968         1.56925
C         68.19789        64.96432         0.66344
C         69.08926        66.86936         2.16196
C         68.01005        67.70212         1.49930
C         69.08733        69.72733         2.48509
C         67.98710        69.09116         1.75668
C         68.99733        71.05943         2.92685
C         72.45388        32.30168         1.46932
C         71.31626        31.62280         1.91005
C         72.32725        33.36569         0.58022
C         71.06321        33.76514         0.09812
C         72.02860        35.59281        -1.31195
C         70.92948        34.92771        -0.78476
C         71.97932        36.95584        -1.68785
C         70.83385        37.72495        -1.51786
C         72.01973        39.90140        -1.73975
C         70.84142        39.17568        -1.46262
C         72.02316        41.28540        -1.70062
C         70.85445        42.00342        -1.38113
C         72.15467        44.16492        -1.10721
C         70.86111        43.51071        -1.53723
C         72.22753        45.49803        -1.00903
C         70.99757        46.30944        -1.21276
C         72.28484        48.57560        -1.27478
C         71.02034        47.79921        -1.34539
C         72.30299        49.92073        -1.23428
C         71.06319        50.72233        -1.39997
C         72.20057        52.96391        -1.44700
C         71.08375        52.20378        -1.21891
C         72.19418        54.38823        -1.29797
C         71.04382        55.10271        -1.02307
C         72.24371        57.31141        -0.86500
C         71.00757        56.56879        -0.98253
C         72.27145        58.64948        -0.62494
C         71.07104        59.46947        -0.79211
C         72.08116        61.49481         0.30105
C         70.96736        60.84200        -0.24734
C         71.98122        62.78464         0.87813
C         70.81959        63.52075         0.78022
C         71.77322        65.62696         1.88042
C         70.61714        64.79546         1.52376
C         71.63493        66.94891         2.23867
C         70.39493        67.62729         2.31033
C         71.40931        69.69345         3.27420
C         70.31046        69.01042         2.68655
C         71.29502        71.01126         3.68945
C         70.08057        71.69558         3.52856
O         53.69432        43.07185         2.61184
O         70.82268        46.94012        -2.51138
O         55.27401        41.26848        -0.11287
O         47.77717        45.98828         2.51337
O         58.64803        60.41179         1.48447
O         61.87757        46.45872         1.35935
O         66.60793        54.68838        -2.21612
O         59.82902        53.47874        -1.26125
O         65.76373        50.16158         0.75138
O         48.06476        50.62745         2.41209
O         59.41428        56.88503         1.67754
O         55.34941        43.90548        -0.53828
O         67.15355        49.43281        -2.50440
O         65.70443        46.91743        -2.32955
O         52.96759        57.03374        -0.92011
O         69.63594        64.51660         2.63343
O         60.19251        48.81643         1.69492
O         49.17829        52.40813        -0.70911
O         67.76547        42.03568        -2.29613
O         69.28992        35.98784        -2.33484
O         55.55804        48.02805         2.76375
O         58.67873        51.00436         2.62984
O         42.59151        54.51933         2.01928
O         61.83552        65.37495        -2.75613
O         70.30027        50.31140        -2.60762
O         54.84254        58.04522         1.92211
O         41.71893        49.25046         0.40374
O         51.73803        43.81905        -0.35899
O         63.83364        43.11095         1.93575
O         61.45590        51.58369         1.62733
O         70.44768        59.29139        -2.09672
O         67.92571        40.58464         1.03290
O         62.02121        49.59160        -1.59125
O         55.77691        52.92154         2.11368
O         69.38676        52.46335         0.55391
O         61.80893        54.68431         1.35092
O         57.17611        53.41379        -0.88837
O         43.77887        48.06539         1.46680
O         69.34084        63.79817        -1.17804
O         62.57254        37.26314        -0.48742
O         60.46166        47.59844        -1.82507
H         60.80235        48.35478        -2.36019
O         66.66998        65.42801        -1.93273
H         66.13867        64.95278        -2.60596
O         66.50899        42.47217         1.91302
H         66.99671        41.68012         2.24371
O         57.91917        47.92374        -1.10556
H         58.66320        47.64191        -1.69877
O         62.82960        39.94554         2.66666
H         63.40060        40.72604         2.84428
O         54.92236        50.47352         3.08497
H         55.53436        49.83212         3.51949
O         57.43573        58.64904        -1.41313
H         56.57094        58.33179        -1.75326
O         66.59698        36.76157        -2.06989
H         67.36432        36.40798        -2.58243
O         70.70119        43.76613        -2.96256
H         69.84410        43.36735        -3.23333
O         69.91243        45.84355         0.84774
H         69.20753        45.32590         1.29416
O         68.60446        56.52499         1.02574
H         69.35971        55.96161         1.30183
O         52.25276        58.73390         2.28894
H         53.16010        58.48957         2.60067
O         49.77278        49.67311        -0.67707
H         49.70564        50.53106        -1.16218
O         50.01065        48.94172         2.92670
H         49.20883        49.44897         3.20477
O         68.53696        32.80172        -1.37288
H         67.74969        33.13823        -1.85116
O         54.82512        61.27389        -1.92726
H         55.59072        61.76968        -2.28889
O         57.65358        45.60004         2.60212
H         57.64398        46.52142         2.94277
O         69.84025        48.59068         0.58867
H         69.89401        47.66370         0.94035
O         59.77544        44.04467        -1.25943
H         58.87734        44.29605        -1.56603
O         68.61292        66.68496         3.53483
H         69.04110        65.85875         3.86301
H         39.52160        49.80633        -4.47198
H         37.88057        51.22457        -5.63635
H         38.65123        54.45568        -2.89266
H         37.43983        53.55760        -4.84442
H         40.73183        48.68502        -3.50711
H         39.34195        54.98270        -1.14217
H         42.19580        47.24355        -2.23806
H         40.53724        55.72186         0.90370
H         45.17284        44.79011        -0.26954
H         43.24116        46.01888        -1.07911
H         45.08069        58.27564         1.83929
H         42.99516        57.01974         2.35090
H         46.49414        43.69571         0.56883
H         46.45641        59.17873         0.83876
H         48.61281        42.54483         0.75513
H         48.51431        60.41846         0.43506
H         52.24226        40.33597         1.67835
H         50.16889        41.53526         1.35301
H         52.22828        62.47480        -0.63476
H         50.12569        61.27706        -0.32178
H         54.16772        39.56691         2.52391
H         53.92168        63.57276        -0.12195
H         56.30080        38.39398         2.47198
H         56.04805        64.74190        -0.41143
H         59.89814        36.07221         1.59772
H         57.78601        37.31067         1.80969
H         59.47850        66.34286        -2.75646
H         57.45054        65.34209        -1.70595
H         61.78410        35.25704         2.07140
H         61.92803        67.93856        -2.21900
H         63.82939        34.05389         1.63261
H         63.62938        69.06428        -0.79430
H         67.38776        31.82977         0.99138
H         65.39734        33.11897         1.38418
H         66.88224        70.93753         1.40016
H         65.06655        69.88867         0.16541
H         69.17378        31.45308         1.79515
H         68.05808        71.61664         2.80866
H         73.44836        32.00527         1.83043
H         71.40820        30.78764         2.61778
H         73.23147        33.90016         0.25879
H         73.01794        35.11483        -1.28920
H         72.93341        37.43899        -1.93872
H         72.94083        39.37465        -2.02120
H         72.94349        41.82372        -1.96463
H         73.04606        43.54948        -0.91729
H         73.17255        45.99495        -0.74046
H         73.23316        48.01938        -1.22700
H         73.25952        50.45350        -1.12826
H         73.13931        52.48519        -1.75967
H         73.14217        54.91440        -1.47192
H         73.18387        56.74767        -0.79206
H         73.21773        59.12620        -0.33339
H         73.05101        60.98211         0.34396
H         72.85403        63.18627         1.41172
H         72.78239        65.20702         1.76998
H         72.55661        67.51878         2.42622
H         72.35713        69.16467         3.44306
H         72.15081        71.51454         4.16007
H         69.98468        72.73454         3.87253
