         280
 CSIRO Nanostructure Databank - Neutral Graphene Oxide Data Set
C         30.69193        31.86851        -1.87805
C         30.76577        33.10405        -1.61179
C         30.55893        36.12763        -1.03621
C         30.63354        37.33030        -1.27123
C         30.58482        40.56467        -0.89466
C         30.50247        41.75046        -0.57101
C         32.81933        28.90082        -0.97987
C         31.83250        29.53137        -1.37617
C         33.02352        31.69079        -1.06144
C         31.36133        30.87832        -0.98805
C         32.94051        33.15281        -0.66056
C         31.76057        33.89055        -0.99295
C         32.85430        36.05419        -0.36291
C         31.53608        35.22822        -0.35126
C         32.93278        37.39399        -0.59597
C         31.81996        38.24571        -1.31152
C         32.84295        40.30667        -0.06843
C         31.62716        39.56949        -0.60578
C         32.86990        41.78506         0.07681
C         31.46749        42.48946         0.33249
C         32.81152        44.48688         0.12091
C         31.70070        43.94746         0.09299
C         35.36238        27.25561        -0.24557
C         35.25172        28.61061        -0.06404
C         34.02555        29.38894        -0.27943
C         35.39914        31.64119        -0.14389
C         34.07001        30.89798        -0.29645
C         35.11099        32.95113         0.65555
C         34.02841        33.77986        -0.04724
C         35.34232        35.97327         0.29880
C         34.09242        35.25906        -0.10975
C         35.23055        37.46030         0.61317
C         34.19154        38.13234        -0.28693
C         35.28840        40.31993         0.61028
C         34.16555        39.61925        -0.16800
C         35.36614        41.78454         0.16636
C         34.07148        42.45424        -0.02122
C         35.33227        44.59377         0.30835
C         34.12237        43.97707        -0.38085
C         35.53437        46.08436         0.06564
C         37.81134        27.09062         0.19944
C         36.56983        26.74862        -0.10391
C         37.81186        28.59869         0.73877
C         36.44812        29.31271         0.54670
C         37.80362        31.50971         0.69232
C         36.48798        30.81121         0.53773
C         37.72456        32.93509         1.10675
C         36.41039        33.70572         1.00816
C         37.78984        35.90536         0.87171
C         36.47646        35.20585         0.91751
C         37.77143        37.42457         1.08635
C         36.56358        38.17422         0.55538
C         37.84098        40.27924         0.49503
C         36.58583        39.54454         0.48804
C         37.85343        41.74882         0.37125
C         36.58906        42.44108         0.15002
C         37.96017        44.66970         0.24344
C         36.67157        43.92858        -0.17906
C         37.95125        46.03798         0.32125
C         36.63160        46.61369         0.28743
C         40.67634        24.73146        -0.66065
C         39.56429        25.12531        -0.29366
C         40.21372        27.32909         0.47913
C         39.13893        26.57140        -0.26144
C         40.29862        28.68349         0.33261
C         38.99467        29.42122         0.02810
C         40.28373        31.55128         0.69102
C         39.00157        30.85312         0.56113
C         40.29030        32.98018         0.77312
C         39.02573        33.71740         1.07205
C         40.24182        35.93150         0.97086
C         38.95427        35.20231         0.93128
C         40.21510        37.38880         0.65945
C         39.04986        38.10329         0.65882
C         40.28366        40.29033         0.37692
C         39.01425        39.54515         0.43584
C         40.27289        41.71923         0.75420
C         39.06030        42.44872         0.46441
C         40.54517        44.60258         0.60943
C         39.26760        43.89476         0.00044
C         40.35369        46.06928         0.97657
C         39.23316        46.77258         0.13689
C         40.41289        48.85395         0.87249
C         39.40880        48.20323         0.56272
C         43.17480        24.66054        -0.45967
C         41.99266        24.85898        -1.25871
C         43.09074        27.42882        -0.14134
C         42.18427        26.78725        -1.17189
C         42.88627        28.71238         0.39683
C         41.54780        29.36051         0.84104
C         42.75764        31.56728         0.75893
C         41.52076        30.86411         0.69393
C         42.76221        32.99154         0.71708
C         41.50852        33.66865         0.71357
C         42.73417        35.82456         0.20669
C         41.52074        35.14743         0.83705
C         42.74648        37.29230         0.67751
C         41.49115        38.01819         0.15468
C         42.76784        40.11941         1.07192
C         41.55402        39.53221         0.37894
C         42.73713        41.63382         1.01823
C         41.43871        42.33895         1.09934
C         42.51504        44.54463         0.64955
C         41.48563        43.80109         1.47113
C         42.88182        45.95030         1.13140
C         41.68393        46.84563         0.75379
C         43.06377        48.82514         1.00549
C         41.69633        48.29983         1.43172
C         44.04895        25.22288         0.22244
C         45.36333        27.27420         1.02355
C         44.21863        26.65808         0.34244
C         45.28067        28.77248         1.13786
C         44.05888        29.43366         0.87730
C         45.23814        31.59762         1.00381
C         44.01539        30.86554         0.91091
C         45.23321        33.02540         0.86605
C         44.02672        33.71100         0.73273
C         45.19342        35.87755         0.40914
C         44.03746        35.15367         0.54627
C         45.20582        37.32152         0.15542
C         43.98644        38.05984         0.32502
C         45.11272        40.19919         0.04235
C         44.00030        39.45925         0.47229
C         45.06777        41.62205        -0.07117
C         43.85216        42.37415         0.36085
C         44.81316        44.49749        -0.65370
C         43.59482        43.79003        -0.09725
C         44.95220        45.97871        -0.39218
C         44.10822        46.62310         0.44802
C         43.97380        48.02858         0.71872
C         46.71631        27.15974        -1.34673
C         46.01863        27.04424        -0.32096
C         47.81293        28.81088         1.29018
C         46.47797        29.50994         1.28806
C         47.78791        31.62735         1.28277
C         46.47735        30.90741         1.15545
C         47.77042        33.15591         1.39775
C         46.56373        33.71819         0.59978
C         47.74523        36.01835         0.47251
C         46.49305        35.23637         0.70357
C         47.62835        37.23805        -0.43714
C         46.36179        38.00927        -0.16573
C         47.56583        40.17153        -0.47677
C         46.24244        39.44228        -0.63757
C         47.51856        41.66287        -0.36154
C         46.20011        42.32976        -0.44815
C         47.35617        44.36612        -1.52154
C         46.09291        43.70641        -0.96542
C         47.20288        45.83786        -1.41050
C         46.18131        46.40359        -1.00082
C         50.13004        28.89829         0.13082
C         48.75728        29.45798         0.27315
C         50.31705        31.59087         0.63606
C         49.03812        30.88406         0.85569
C         50.20311        33.03397         0.20034
C         49.09316        33.84064         0.88974
C         50.20628        35.94018        -0.24510
C         49.06695        35.29438         0.48293
C         50.11252        37.37394        -0.56518
C         48.90651        38.04647        -0.50591
C         50.07000        40.28501        -0.83047
C         48.79903        39.47510        -1.02767
C         50.03095        41.64050        -0.58534
C         48.78570        42.50867        -0.39901
C         49.84338        43.91602        -2.02926
C         48.66567        43.66221        -1.43538
C         51.22799        29.43660        -0.02300
C         52.50583        31.65451        -0.38983
C         51.65891        30.77454         0.49980
C         52.48647        32.88362        -0.47575
C         51.55290        33.84531         0.21812
C         52.44662        36.02348        -0.90484
C         51.38460        35.21603        -0.37962
C         52.38854        37.22993        -1.21463
C         51.30959        38.13716        -0.99759
C         52.33581        40.34976        -1.65163
C         51.29494        39.51823        -1.13833
C         52.52915        41.50311        -2.09395
C         51.77360        42.66259        -1.72577
C         51.00555        43.52497        -2.48261
O         47.66430        40.76691         0.83246
O         33.58411        30.19936         0.87237
O         41.05740        35.57607         2.14684
O         34.62974        39.00220        -1.39243
O         43.71718        44.06534        -1.51993
O         41.15562        40.20470        -0.85521
O         43.76497        42.27018         1.84266
O         35.17444        35.65535        -1.10209
O         41.70206        27.35680        -2.09224
O         51.20797        42.38087        -0.40441
O         48.62917        30.96501         2.27433
O         48.12853        27.87867         2.00473
O         49.51982        34.85599         1.81985
O         31.91036        39.55141         0.80232
O         46.41978        43.76204        -2.42549
O         36.17305        34.54646         2.18694
O         38.44149        33.22843         2.33368
O         47.14584        35.99972         1.79176
O         34.92952        40.26226         1.97236
O         36.09037        30.09003         1.74459
O         31.18195        35.00710         1.00830
H         30.94558        35.86622         1.41668
O         48.10930        29.61224        -0.97120
H         47.74770        28.73104        -1.27368
O         41.88609        47.02214        -0.64596
H         41.25059        47.68264        -0.99745
O         42.65194        35.60906        -1.21883
H         42.00746        36.24338        -1.61481
O         39.19547        26.95243        -1.67000
H         38.47766        26.47268        -2.13600
O         32.22909        38.50892        -2.63486
H         32.37842        37.66472        -3.10659
O         51.98882        33.97382         1.55602
H         52.73464        34.60636         1.59804
O         37.67743        37.58147         2.53295
H         36.75623        37.35353         2.79889
O         38.71337        29.55032        -1.36982
H         38.99717        28.71417        -1.81770
O         41.63081        29.07021         2.28753
H         42.24064        29.71605         2.70599
O         47.59572        33.45708         2.77488
H         48.01451        34.33478         2.94624
O         41.05958        26.61349         1.25187
H         41.48363        27.22458         1.90217
O         36.72849        44.03059        -1.63046
H         37.64672        43.76081        -1.90030
O         49.78132        32.95085        -1.18668
H         50.45790        32.44499        -1.68962
O         46.87756        33.43070        -0.78845
H         46.15489        33.76692        -1.35962
O         48.87415        43.16479         0.88136
H         48.79343        42.47334         1.57481
O         45.93839        39.39306        -2.06335
H         45.06468        38.96217        -2.17600
O         30.83607        30.89568         0.26909
H         31.28763        30.22937         0.83130
O         34.12573        44.10528        -1.78772
H         35.05372        44.20002        -2.10847
O         47.46164        36.68266        -1.78716
H         47.41064        37.45419        -2.40026
O         33.38958        31.63848        -2.43819
H         32.71604        32.12427        -2.96408
O         38.11018        28.54014         2.11831
H         37.40759        29.03551         2.60408
O         39.42018        43.82472        -1.44749
H         39.70065        44.72558        -1.74358
O         31.12480        42.23701         1.66261
H         30.23672        42.60266         1.84845
O         41.43736        43.97322         2.89198
H         42.25468        44.45902         3.16498
O         48.56678        39.34284        -2.46052
H         49.38394        38.98392        -2.86801
O         39.93163        46.16769         2.34128
H         40.32806        45.41341         2.84759
O         52.24901        30.65500         1.75989
H         52.99627        30.02505         1.71423
O         39.49219        46.67062        -1.28023
H         38.70312        47.01491        -1.75176
O         35.22612        44.37545         1.69519
H         34.30256        44.54700         1.97866
O         42.80057        37.19624         2.10991
H         42.74922        38.09684         2.51662
O         42.67386        39.80748         2.48612
H         43.29353        40.40837         2.95762
O         34.75511        37.57864         1.97590
H         34.74046        38.56729         2.19658
O         41.45675        37.83407        -1.28909
H         41.08332        38.67220        -1.66922
O         45.84257        26.56457         2.12482
H         46.78382        26.81698         2.30153
O         35.91934        31.99264        -1.43264
H         35.17899        32.04311        -2.08477
O         43.13190        45.92330         2.54710
H         42.85991        46.79128         2.93506
O         42.08313        24.50346        -2.58772
H         41.20380        24.56045        -3.00970
O         34.51648        32.54586         1.89837
H         34.71368        33.24110         2.56708
O         41.65060        48.20335         2.82646
H         41.47882        49.08586         3.21454
