         404
 CSIRO Nanostructure Databank - Neutral Graphene Oxide Data Set
C          1.50571         4.19042        -3.59831
C          0.35259         4.93206        -3.73022
C          1.46938         6.96103        -2.92991
C          0.32978         6.30475        -3.39490
C          1.43664         8.36705        -2.51320
C          0.21517         9.11793        -2.53539
C          1.32489        11.08173        -1.58179
C          0.17536        10.42487        -2.13158
C          1.24293        12.40520        -1.10325
C          0.12373        13.27395        -1.35541
C          0.97975        14.97227         0.24330
C         -0.01291        14.47431        -0.73027
C          0.86929        16.40082         0.80949
C         -0.22359        17.34628         0.50942
C          0.97275        19.22461         1.65301
C         -0.20113        18.60832         0.97680
C          1.07883        20.72002         1.65868
C         -0.10403        21.48359         1.54679
C          1.14393        23.55170         1.82503
C         -0.07428        22.85939         1.64202
C          1.16704        24.99436         1.87517
C         -0.03737        25.74145         1.87834
C          1.19523        27.83337         1.71648
C         -0.02350        27.11699         1.80922
C          1.19490        29.26651         1.50236
C         -0.00694        29.99871         1.39856
C          1.18419        32.05345         0.82466
C         -0.01227        31.34532         1.06909
C          1.14984        33.41624         0.34804
C         -0.02180        34.06804        -0.05210
C          1.19407        36.04241        -0.87155
C         -0.00899        35.36696        -0.58470
C          1.21379        37.33314        -1.50209
C          3.89941         4.07519        -3.01530
C          2.70744         4.80849        -3.13736
C          3.89221         6.83407        -2.40233
C          2.69224         6.21001        -2.81184
C          3.88997         8.29754        -2.19056
C          2.59825         9.00537        -2.07213
C          3.73611        10.93523        -0.99578
C          2.57375        10.34356        -1.53555
C          3.63275        12.18146        -0.21461
C          2.32634        12.92987        -0.27194
C          3.39898        14.84231         0.92499
C          2.30796        14.31445         0.23796
C          3.12244        16.06980         1.64154
C          2.11145        16.95297         1.36177
C          3.51389        19.14603         1.47178
C          2.21328        18.38751         1.79090
C          3.53887        20.56366         2.05427
C          2.29787        21.37712         1.89780
C          3.59617        23.52984         2.07891
C          2.35592        22.80872         1.93693
C          3.63472        24.93623         1.98162
C          2.40793        25.68655         1.88834
C          3.67249        27.82433         1.75557
C          2.41831        27.11412         1.78857
C          3.66980        29.25695         1.52026
C          2.43267        29.95902         1.34125
C          3.67656        32.01603         0.82434
C          2.42992        31.35277         1.00791
C          3.71490        33.46322         0.50529
C          2.41097        34.17352         0.23959
C          3.65115        35.97683        -0.97752
C          2.43653        35.41481        -0.55974
C          3.65650        37.26896        -1.62172
C          2.39697        37.93323        -1.83332
C          6.28543         3.93242        -2.42391
C          5.09346         4.68181        -2.56485
C          6.28848         6.69586        -1.75259
C          5.08826         6.09184        -2.25564
C          6.28473         8.06916        -1.32751
C          5.12926         8.94185        -1.63101
C          6.06203        10.75883        -0.22168
C          5.00524        10.25608        -0.94841
C          6.00465        12.06495         0.56335
C          4.90824        12.98639         0.00372
C          5.98184        14.92109         1.11141
C          4.77586        14.29170         0.81052
C          6.22788        16.27587         1.83085
C          5.03010        17.15166         2.02548
C          6.01892        19.25379         1.25062
C          4.84911        18.45185         1.69948
C          6.10027        20.65971         1.63891
C          4.85968        21.28778         2.15827
C          6.16654        23.52639         2.12353
C          4.85227        22.78642         2.30381
C          6.12747        24.97954         1.89398
C          4.89398        25.66187         1.92997
C          6.15606        27.81207         1.93278
C          4.87155        27.09719         1.85206
C          6.16431        29.32000         1.71110
C          4.88340        29.97250         1.39064
C          6.17722        32.12569         0.98916
C          4.88407        31.33234         1.00348
C          6.10557        33.26937         0.00222
C          4.94085        33.97928        -0.15321
C          6.06049        35.80512        -1.39206
C          4.89506        35.25112        -0.85842
C          6.09529        37.14887        -1.91983
C          4.85781        37.85113        -2.02656
C          8.68316         3.78371        -1.85639
C          7.47948         4.52244        -1.95906
C          8.66158         6.52101        -1.09998
C          7.46535         5.91981        -1.58573
C          8.63147         7.89525        -0.65149
C          7.38205         8.61433        -0.68668
C          8.55295        10.68815         0.25180
C          7.28337         9.95521        -0.07118
C          8.54242        12.15691         0.45716
C          7.32414        12.83103         0.58530
C          8.52166        14.91879         0.98656
C          7.28230        14.22976         0.87985
C          8.54895        16.37633         1.05272
C          7.34914        17.04881         1.19062
C          8.55748        19.25569         1.05024
C          7.30594        18.49928         0.99830
C          8.54424        20.65500         1.17493
C          7.31101        21.36336         1.49263
C          8.58644        23.48454         1.55648
C          7.38055        22.77972         1.71949
C          8.61339        24.92534         1.64684
C          7.38386        25.66261         1.73307
C          8.63036        27.78136         1.54163
C          7.40874        27.07414         1.71555
C          8.63973        29.19949         1.29424
C          7.42454        29.95284         1.26082
C          8.63685        31.88911         0.39385
C          7.41692        31.27160         0.81496
C          8.62044        33.13958        -0.30043
C          7.31434        33.66461        -0.72253
C          8.56143        35.64661        -1.76757
C          7.28375        35.00460        -1.46390
C          8.54457        36.97965        -2.35063
C          7.30253        37.70062        -2.37503
C         11.12868         3.70313        -1.44958
C          9.89508         4.39525        -1.46063
C         11.11096         6.44223        -0.79864
C          9.87954         5.79020        -1.08952
C         11.09563         7.89890        -0.64054
C          9.82172         8.57370        -0.39439
C         11.09547        10.75027         0.14477
C          9.82058        10.03483        -0.17682
C         11.04060        12.13617         0.66849
C          9.78963        12.83030         0.64188
C         11.02725        14.91381         0.98793
C          9.77396        14.23055         0.88425
C         11.02517        16.37433         1.09166
C          9.76872        17.10832         0.94332
C         11.00128        19.25509         0.82449
C          9.78204        18.52543         0.97352
C         11.01501        20.65753         0.87570
C          9.79082        21.37082         1.12720
C         11.06893        23.47037         1.33194
C          9.81325        22.77369         1.30553
C         11.09123        24.89242         1.53249
C          9.85488        25.61783         1.60974
C         11.08303        27.76997         1.42229
C          9.85615        27.05597         1.54451
C         11.08890        29.12900         1.11474
C          9.86721        29.85669         1.00255
C         11.10005        31.90809         0.24797
C          9.87118        31.21802         0.55745
C         11.08006        33.22564        -0.32333
C          9.80403        33.77468        -0.69419
C         11.00075        35.56621        -1.92642
C          9.76734        34.99222        -1.47826
C         10.86064        36.50043        -3.10916
C          9.71469        37.46473        -2.91334
C         13.57514         3.65008        -1.13135
C         12.34707         4.34547        -1.11737
C         13.56667         6.41074        -0.40236
C         12.33787         5.75504        -0.79237
C         13.56421         7.73088         0.07614
C         12.40603         8.57428        -0.18548
C         13.49291        10.55219         1.07260
C         12.28339         9.90650         0.47567
C         13.49752        12.04911         1.18698
C         12.23767        12.80023         0.94500
C         13.53038        14.93935         0.80341
C         12.25966        14.23069         0.99416
C         13.52405        16.30318         0.47668
C         12.32866        17.10048         0.76412
C         13.48922        19.30794         0.14175
C         12.20272        18.53105         0.37933
C         13.50932        20.70155         0.58810
C         12.27531        21.37385         0.83769
C         13.58463        23.41011         1.50688
C         12.27815        22.75455         1.15005
C         13.55650        24.90308         1.37713
C         12.35202        25.58219         1.55960
C         13.64915        27.79234         1.81790
C         12.34542        27.05515         1.72949
C         13.67281        29.18652         1.20275
C         12.36025        29.80687         0.77880
C         13.53842        31.94427         0.23069
C         12.33175        31.24561         0.44309
C         13.50237        33.32447        -0.12930
C         12.28694        33.95983        -0.54965
C         13.39901        35.89272        -1.87353
C         12.23382        35.17578        -1.38512
C         13.36004        36.71988        -3.06367
C         12.13805        37.10425        -3.59068
C         16.04013         3.60645        -0.93914
C         14.80365         4.30167        -0.84904
C         16.04449         6.34865        -0.23491
C         14.80611         5.67727        -0.45406
C         16.07746         7.72137         0.22160
C         14.79777         8.33611         0.62837
C         16.05526        10.56498         0.85814
C         14.80275         9.80645         1.04928
C         16.05446        11.97646         0.80129
C         14.81085        12.76640         1.04265
C         15.97557        14.86455         0.42965
C         14.77100        14.20867         0.70316
C         16.03430        16.27852         0.27870
C         14.76304        16.99413         0.08627
C         16.00813        19.22906         0.38774
C         14.77249        18.54082         0.01431
C         16.01529        20.62173         0.58852
C         14.77576        21.36269         0.69603
C         16.02707        23.47234         0.79332
C         14.81512        22.75191         0.94145
C         16.04425        24.91579         0.99943
C         14.82049        25.58964         1.32031
C         16.14089        27.52385         1.85058
C         14.87867        26.95805         1.65843
C         16.12078        29.65954         1.61225
C         14.86236        30.08191         1.17642
C         16.04780        31.99323         0.20070
C         14.81499        31.32461         0.49724
C         16.00025        33.37927        -0.18152
C         14.76599        33.99322        -0.07985
C         15.87337        36.00175        -1.91577
C         14.66424        35.80110        -1.26404
C         15.84017        36.72482        -3.15222
C         14.60727        37.14151        -3.65153
C         18.51219         3.53311        -0.72875
C         17.25872         4.27100        -0.76889
C         18.51296         6.41710        -0.43888
C         17.25584         5.66845        -0.48525
C         18.53575         7.77030         0.12850
C         17.27049         8.41971         0.40684
C         18.50019        10.55681         0.66824
C         17.27458         9.84918         0.69708
C         18.50100        11.96551         0.53552
C         17.25764        12.65700         0.54063
C         18.53681        14.85906         0.18169
C         17.22168        14.09768         0.23612
C         18.51045        16.32393         0.38254
C         17.25519        16.98797         0.34118
C         18.56665        19.21422         0.69925
C         17.20772        18.43797         0.62131
C         18.51823        20.66344         0.48359
C         17.26619        21.34529         0.59201
C         18.46152        23.49333         0.19423
C         17.22691        22.76551         0.52989
C         18.47215        25.02738         0.36702
C         17.24934        25.65412         0.88641
C         18.53577        27.82794         1.12921
C         17.32891        27.01111         1.29792
C         18.53895        29.26017         1.06839
C         17.33215        30.09506         1.03789
C         18.57702        31.99028        -0.08585
C         17.29137        31.33727         0.37507
C         18.50037        33.51277        -0.04778
C         17.24493        34.09478        -0.63779
C         18.29544        36.39495        -1.69113
C         17.16852        35.36921        -1.46502
C         18.29686        36.79886        -3.16035
C         17.10667        37.00702        -3.80483
C         19.70330         4.12480        -0.46799
C         20.97127         6.24011         0.22908
C         19.84018         5.59083        -0.41995
C         20.94566         7.58037         0.50762
C         19.75315         8.37277         0.41713
C         20.99301        10.57490         0.44738
C         19.78891         9.80296         0.91956
C         20.97570        11.91911         0.32441
C         19.75611        12.70068         0.43247
C         20.98335        14.87722         0.51646
C         19.78412        14.09958         0.40558
C         20.96332        16.24849         0.49945
C         19.74598        17.01890         0.45410
C         20.94230        19.19610         0.10892
C         19.78693        18.45447         0.41934
C         20.92993        20.58708         0.07653
C         19.74334        21.34635         0.25233
C         20.91591        23.55962         0.19026
C         19.75395        22.79530         0.20347
C         20.92046        24.96113         0.38164
C         19.76092        25.70578         0.58498
C         20.97721        27.86138         0.88611
C         19.76375        27.12504         0.89638
C         20.98384        29.24220         0.91437
C         19.76625        29.96918         0.88407
C         20.83836        32.21027         1.01312
C         19.75738        31.39624         0.65695
C         20.79905        33.59199         0.83355
C         19.63575        34.21327         0.29448
C         20.80136        36.17273        -1.88725
C         19.65245        36.00149        -1.18938
C         20.74791        36.67263        -3.24248
C         19.56077        36.98145        -3.83620
O         16.19415        28.69086         2.61437
O          7.12713        33.71643        -2.17769
O          0.41321        15.22719         1.57573
O         14.79114        17.73292        -1.19675
O          4.23078        20.63463         3.33020
O         18.30743        24.40926        -0.94526
O         12.58409        18.95619        -0.95931
O         14.72827        35.38078         0.06665
O         10.58264        10.74250        -1.22660
O         17.34453        34.07604        -2.14498
O         17.85502        18.77016         1.89430
O          5.63431        23.19568         3.46895
O          7.84744         9.96222         1.31515
O         14.22044        12.51100         2.37440
O         13.18041        29.04356        -0.18725
O         12.49748         9.89515         1.91981
O         17.85281        14.42506        -1.05224
O         14.82908         8.74466         2.04580
O          3.13366        34.31971         1.53470
O          2.70310        12.04805         0.88299
O          4.01014        16.44490         2.65291
O          1.42353        18.69223         2.96282
O         11.88797        16.91434         2.15474
O         19.68373        35.62203         0.17298
O          6.42001        18.95824        -0.14498
O         12.89808        27.55840         3.03752
O         11.99724         8.59134        -1.58333
O          4.84796         9.00833        -3.07375
O          6.23016        28.76763         3.06378
O         19.35388         6.25709        -1.62241
O          5.68528        11.73408         1.93046
H          6.35467        11.07481         2.22836
O         18.77635        31.63219        -1.49880
H         18.21960        32.24075        -2.03713
O         19.91883         9.70392         2.38223
H         19.90072        10.61561         2.74281
O          3.42849        19.29071         0.01668
H          4.33736        19.30917        -0.36039
O          6.69719        15.90878         3.16418
H          5.91585        15.57993         3.66067
O         10.43130        35.63003        -4.24074
H          9.59682        35.19073        -3.96368
O          6.30767        32.73612         2.31339
H          6.24043        32.02106         2.98157
O         13.71426        23.17213         2.97585
H         12.98427        23.66106         3.41446
O          5.29837        13.37476        -1.33964
H          6.15980        13.84208        -1.29277
O         17.92474        37.57699        -0.91982
H         18.24221        37.44155        -0.00103
H          1.51654         3.12049        -3.85047
H         -0.56999         4.45673        -4.09164
H         -0.61908         6.84542        -3.50747
H         -0.70949         8.64912        -2.89627
H         -0.78165        10.96249        -2.16880
H         -0.65990        12.94827        -2.05378
H         -0.91795        15.07439        -0.90013
H         -1.11860        16.97196        -0.00849
H         -1.06653        19.24884         0.75467
H         -1.07502        20.99135         1.41225
H         -1.02053        23.40748         1.55703
H         -1.00763        25.23239         1.93222
H         -0.98290        27.64927         1.80444
H         -0.97344        29.50478         1.56058
H         -0.97917        31.85955         0.98860
H         -0.99271        33.56218         0.04282
H         -0.96371        35.84477        -0.84769
H          0.25727        37.83464        -1.70943
H          3.90376         3.00557        -3.27269
H          2.40138        38.92612        -2.30651
H          6.28016         2.86511        -2.69109
H          4.84960        38.85269        -2.48190
H          8.68305         2.71948        -2.13577
H          7.29466        38.70957        -2.81326
H         11.14745         2.63891        -1.72901
H          9.73251        38.44685        -3.40783
H         13.58647         2.58398        -1.40303
H         12.10015        37.73941        -4.48817
H         16.03434         2.53040        -1.16813
H         14.56889        37.75410        -4.56402
H         18.45373         2.43714        -0.80881
H         17.09915        37.37059        -4.84342
H         20.60321         3.51215        -0.30679
H         21.83544         5.62817         0.52676
H         21.83616         8.04247         0.95758
H         21.94012        10.03341         0.30847
H         21.90503        12.44193         0.05548
H         21.94930        14.36526         0.62769
H         21.91803        16.78505         0.58778
H         21.88573        18.67545        -0.10562
H         21.87140        21.10805        -0.14257
H         21.89312        23.06038         0.13084
H         21.90307        25.44666         0.45570
H         21.93601        27.33405         0.79511
H         21.94095        29.77676         0.83962
H         21.71888        31.76436         1.49861
H         21.64635        34.22038         1.13520
H         21.77179        35.93472        -1.43258
H         21.69123        36.80029        -3.79072
H         19.54044        37.34502        -4.87398
