         276
 CSIRO Nanostructure Databank - Neutral Graphene Oxide Data Set
C        -11.28443         0.52725         0.04897
C        -10.01528         1.24378        -0.34546
C         -8.83418         0.71011         0.51033
C         -7.51592         1.23561        -0.07958
C         -6.33475         0.60717         0.78680
C         -5.03228         1.41848         0.68148
C         -3.77346         0.87712        -0.01014
C         -2.53343         1.32145         0.85049
C         -1.23689         0.68605         0.34322
C          0.00157         1.44111         0.79468
C          1.30914         0.78866         0.37508
C          2.57059         1.53856         0.72373
C          3.92833         0.82039         0.70684
C          4.92429         1.34009        -0.31876
C          6.17479         0.46438        -0.53236
C          7.48616         1.30394        -0.53232
C          8.70335         0.70285         0.10585
C         10.01271         1.46307        -0.02726
C         11.23063         0.63191        -0.17140
C        -10.01542         2.76397        -0.18886
C         -8.83937         3.51971        -0.17444
C         -7.53587         2.77294        -0.20515
C         -6.30315         3.57426         0.09967
C         -5.07409         2.90406         0.61323
C         -3.79501         3.61920         0.31079
C         -2.52803         2.94637         0.87721
C         -1.30158         3.57520         0.25437
C         -0.03944         2.87918         0.37276
C          1.16935         3.61279        -0.10791
C          2.49470         2.94720         0.23774
C          3.65276         3.66411        -0.43959
C          4.93788         2.81899        -0.56974
C          6.25387         3.55939        -0.57872
C          7.52461         2.79156        -0.78787
C          8.78241         3.59638        -0.58010
C          9.98919         2.86703        -0.45747
C         -8.83919         4.93844        -0.04699
C         -7.66047         5.80718        -0.06978
C         -6.29659         5.07667         0.05430
C         -5.12631         5.81501         0.69253
C         -3.82195         5.11275         0.32217
C         -2.51208         5.83836         0.67999
C         -1.30636         5.08735         0.09465
C          0.01585         5.81675         0.05750
C          1.19396         5.02983         0.61411
C          2.52963         5.80060         0.46542
C          3.86051         5.03328         0.21142
C          4.94828         5.78170        -0.67391
C          6.28589         5.05754        -0.48930
C          7.51586         5.80114        -0.98061
C          8.75817         4.99332        -0.64425
C         -7.59900         7.24181         0.23036
C         -6.36268         7.93730         0.14459
C         -5.13648         7.26373         0.25088
C         -3.86702         8.01759         0.14551
C         -2.54415         7.32949         0.31026
C         -1.33463         7.99986        -0.36810
C          0.01102         7.30119        -0.09189
C          1.17937         8.10640         0.48671
C          2.49928         7.29805         0.38642
C          3.72893         8.03385        -0.06750
C          4.97344         7.29444        -0.45820
C          6.29979         7.95805        -0.34569
C          7.46294         7.25834        -0.50274
C         -6.29642         9.40609         0.04853
C         -5.16187        10.07593        -0.24477
C         -3.88542         9.33950        -0.62341
C         -2.58509        10.11628        -0.55198
C         -1.29722         9.52938        -0.01292
C          0.03201        10.11435        -0.47718
C          1.25373         9.50807        -0.11385
C          2.50624        10.14073        -0.17554
C          3.74838         9.48085         0.41350
C          5.09117        10.10633         0.09906
C          6.22795         9.41018        -0.14004
C        -11.26781        -0.81312         0.19573
C        -10.02906        -1.60098         0.23699
C         -8.83011        -0.87088         0.85080
C         -7.42946        -1.63815         0.60860
C         -6.22967        -0.78901         0.22401
C         -5.07424        -1.35151        -0.20771
C         -3.78386        -0.61332        -0.29962
C         -2.48257        -1.35405        -0.25251
C         -1.20338        -0.63300         0.02501
C          0.05108        -1.34790        -0.48513
C          1.33518        -0.65256        -0.00806
C          2.49364        -1.42115         0.55023
C          3.79521        -0.70189         0.76346
C          5.07038        -1.47224         0.68717
C          6.19921        -0.83671         0.27784
C          7.48002        -1.58346        -0.05094
C          8.73453        -0.78457         0.30361
C         10.03078        -1.53222         0.16079
C         11.23003        -0.72132        -0.15047
C        -10.02908        -2.93975         0.00160
C         -8.75605        -3.75264         0.15215
C         -7.63194        -2.81490        -0.36439
C         -6.31899        -3.54753        -0.63881
C         -5.04249        -2.77388        -0.65121
C         -3.70974        -3.48471        -0.60564
C         -2.54174        -2.82822         0.10738
C         -1.27492        -3.61393        -0.21081
C          0.04090        -2.89538        -0.32612
C          1.26837        -3.65249         0.05718
C          2.44088        -2.92822         0.58680
C          3.72382        -3.67627         0.93581
C          5.04191        -2.90500         1.26010
C          6.31949        -3.70704         0.92886
C          7.57995        -2.98983         0.53920
C          8.80122        -3.69533         0.04990
C          9.94360        -2.98923        -0.14480
C         -8.69458        -5.13135        -0.48983
C         -7.50240        -5.78989        -0.60358
C         -6.22562        -5.02711        -0.28759
C         -5.00950        -5.63190        -0.96291
C         -3.67284        -4.96258        -0.77398
C         -2.48601        -5.75390        -0.30411
C         -1.32969        -5.08686         0.03605
C         -0.03914        -5.79657         0.24975
C          1.25719        -5.03352         0.19068
C          2.49966        -5.75830         0.41512
C          3.72869        -5.12003         0.61468
C          5.00115        -5.82176         0.62687
C          6.23863        -5.16851         0.66499
C          7.44200        -5.88171         0.27118
C          8.78675        -5.20468         0.00430
C         -7.37569        -7.23678        -0.73831
C         -6.17289        -7.90860        -0.85947
C         -4.97513        -7.09027        -1.22186
C         -3.62428        -7.69855        -1.20598
C         -2.52213        -7.19309        -0.56066
C         -1.40294        -8.06938         0.03463
C         -0.07047        -7.29858         0.17784
C          1.22598        -8.00121        -0.10264
C          2.48675        -7.23210         0.15644
C          3.68169        -8.01806         0.60460
C          4.98498        -7.28927         0.71134
C          6.28050        -8.05846         0.41187
C          7.41701        -7.23235         0.01983
C         -6.12364        -9.33083        -0.53169
C         -5.07330       -10.20085        -0.38985
C         -3.69658        -9.91348        -0.76370
C         -2.49875       -10.29089        -0.25494
C         -1.24895        -9.48633        -0.63250
C          0.01546       -10.17455        -0.18600
C          1.22201        -9.49858        -0.04726
C          2.44804       -10.18514        -0.00172
C          3.69618        -9.51513         0.37079
C          4.99217       -10.15007         0.04740
C          6.15697        -9.47154        -0.00601
O          1.59988         0.39365        -1.00242
O         -3.83790         4.38591        -0.92672
O          2.90515        -0.97111         1.89510
O         -2.63399         0.84717         2.14343
O         -5.74435        -3.11597        -1.90119
O          2.74100         6.63480         1.66295
O          6.48403         4.28214         0.69983
O          4.58399         1.85679        -1.62554
O          2.71598        -3.40724         1.95271
O         -0.02196        -6.63167         1.48399
O         -3.62690        -8.95751        -1.81134
O         -3.10840         8.09499         1.41432
O          2.53847         2.63954         1.67049
O         -0.65789        -3.43099        -1.51588
O          4.07703         7.93445        -1.46836
O          0.36508         6.44070        -1.22109
O          7.45459        -1.77354        -1.44559
O          7.34391        -3.29647         1.92114
O          5.82409        -7.80345         1.77816
O          9.43738        -1.20562         1.48256
O         -3.06107        -0.97203        -1.54208
O          2.03460        -7.51459        -1.22457
O         -4.93588         2.23072         1.88743
O         -6.62022         3.12086        -1.27596
O          9.22606         1.39607         1.25561
O         -1.50789         4.26849        -1.06876
O          3.48423        -8.90859         1.72873
O          7.68761         1.85013        -1.88785
O         -6.71521         0.49318         2.12662
O         -3.33189        -4.05986        -1.88178
O         -6.70210         5.55660        -1.20050
O         -5.22983        -6.12562        -2.30804
O         -0.02552         1.36076         2.24770
H         -0.97962         1.19243         2.51798
O          0.93332         4.82607         2.00184
H          1.48466         4.07321         2.32485
O         -8.57585        -4.05524         1.56603
H         -8.66611        -3.21111         2.07200
O         -9.88828         1.03265        -1.76667
H         -8.93301         0.89251        -1.99076
O         -9.01009         1.44225         1.73397
H         -8.16194         1.31729         2.25744
O         -5.26980         5.72351         2.13010
H         -4.37665         5.60882         2.53079
O          0.92173         8.28893         1.90364
H          1.23719         7.46830         2.36345
O         -3.69788         1.54036        -1.27569
H         -3.27285         0.91773        -1.91366
O          4.60921         1.14927         1.93900
H          4.04546         0.84918         2.68488
O          4.35786         4.77390         1.51952
H          4.19952         5.56015         2.08741
O          7.46415         5.85184        -2.43571
H          6.50805         5.89325        -2.69334
O          6.02909        -0.07290        -1.86063
H          6.57568         0.46481        -2.48023
O         -8.09996        -2.26623        -1.60734
H         -7.32434        -2.23801        -2.21964
O         -2.70938        -2.93031         1.53805
H         -3.30876        -2.22357         1.85911
O         -7.31423         0.71652        -1.40555
H         -6.72335         1.35494        -1.87762
O         -2.36237         5.79622         2.11260
H         -2.58330         6.69083         2.46685
O         -2.49326         3.29328         2.26101
H         -2.73441         2.44855         2.74447
O         -1.30729         9.75001         1.41761
H         -0.50806         9.32804         1.81877
O         -1.55938         7.93305        -1.79238
H         -0.99284         7.20267        -2.14877
O          9.31296        -5.66257        -1.25044
H          8.84382        -5.19250        -1.97037
O          5.05368        -2.74020         2.68604
H          4.14088        -2.48179         2.95505
O         -6.00204        -5.09889         1.14114
H         -6.82381        -4.74654         1.57880
O         -6.97154        -2.14407         1.88439
H         -6.69912        -1.32811         2.38988
O          4.76095         5.64085        -2.09806
H          4.06091         6.27545        -2.38032
O         -1.07482        -9.34808        -2.05400
H         -1.96763        -9.20886        -2.45358
O         -1.86099        -8.35863         1.37386
H         -1.54978        -7.61961         1.95070
O          1.00254         3.73084        -1.52391
H          0.06632         3.98220        -1.72534
O          3.61794         9.50872         1.85958
H          2.69621         9.25125         2.09726
O         -9.10276        -0.99625         2.25353
H         -8.42530        -0.46489         2.73155
O         -4.01686         9.04817        -2.04472
H         -3.19200         8.57627        -2.32429
O          3.25904         3.90839        -1.78856
H          3.20587         3.04403        -2.25418
O          0.01934        -1.10324        -1.90749
H         -0.62375        -1.73820        -2.30273
H         12.16772        -1.25727        -0.36473
H         12.16251         1.16280        -0.42071
H         10.94970         3.39904        -0.55008
H          9.71320         5.53261        -0.53575
H          8.41795         7.80452        -0.43577
H          7.17166         9.96728        -0.25151
H          5.15778        11.20077         0.20060
H          2.56541        11.17080        -0.55952
H          0.05428        11.14834        -0.85613
H         -2.51936        10.98006        -1.23551
H         -5.17261        11.17370        -0.31370
H         -7.22630         9.96574         0.23343
H         -8.53136         7.80523         0.38337
H         -9.80281         5.41803         0.18882
H        -10.97705         3.29760        -0.27669
H        -12.23566         1.08090         0.04962
H        -12.21631        -1.35878         0.32585
H        -10.95662        -3.43731        -0.32481
H         -9.63945        -5.67070        -0.66721
H         -8.28938        -7.83009        -0.56697
H         -7.10357        -9.72890        -0.21661
H         -5.28675       -11.18452         0.05648
H         -2.43963       -11.00082         0.58154
H          0.02162       -11.27560        -0.14785
H          2.46081       -11.27494        -0.15961
H          4.96075       -11.20048        -0.27997
H          7.06803        -9.98172        -0.35364
H          8.28913        -7.70609        -0.45530
H          9.49580        -5.57639         0.79349
H         10.86202        -3.51027        -0.45759
