         260
 CSIRO Nanostructure Databank - Neutral Graphene Oxide Data Set
C         30.75655        32.05735         2.08136
C         30.63441        33.24827         1.67006
C         30.75492        36.47522         1.49909
C         30.75217        37.64234         1.08151
C         30.78640        40.88104         0.39767
C         30.78543        42.01826        -0.10684
C         33.15798        29.13467         2.51681
C         32.08465        29.81527         2.49632
C         33.12396        31.87171         1.89088
C         31.81260        31.15265         2.21382
C         33.00922        33.26388         1.29971
C         31.87160        34.17969         1.82542
C         33.10899        36.22932         0.89823
C         31.74594        35.44930         0.97317
C         33.13990        37.75049         0.68132
C         31.86321        38.55789         0.81408
C         32.94102        40.42519        -0.71856
C         31.73084        39.82402         0.04333
C         32.93696        41.87683        -1.08256
C         31.85081        42.71224        -0.76024
C         33.08952        44.61545        -1.51449
C         32.03156        44.07940        -1.14185
C         35.86609        27.47729         1.99307
C         35.58846        28.83688         1.58479
C         34.23248        29.49719         1.49918
C         35.51613        31.66784         0.86108
C         34.33863        31.03840         1.57952
C         35.45300        33.09695         0.40383
C         34.15289        33.85949         0.53269
C         35.29185        35.96898        -0.46283
C         34.26780        35.37538         0.47277
C         35.32785        37.46043        -0.67023
C         34.43201        38.39888         0.13685
C         35.39782        40.27523        -1.15332
C         34.25501        39.72333        -0.64157
C         35.42367        41.62345        -1.79518
C         34.13625        42.41389        -1.78604
C         35.59196        44.57522        -2.01807
C         34.26537        43.94431        -2.06349
C         35.76206        45.95982        -1.87810
C         38.15351        27.27633         1.30865
C         36.88786        26.78463         1.90066
C         37.76668        28.43822         0.34877
C         36.68121        29.37659         0.94065
C         37.75915        31.35160        -0.34766
C         36.56550        30.72848         0.32221
C         37.72156        32.81830        -0.78549
C         36.48002        33.63598        -0.56104
C         37.81656        35.82528        -1.12395
C         36.50953        35.14022        -0.83011
C         37.89303        37.33991        -1.30014
C         36.60435        38.10652        -1.03750
C         37.89951        40.18200        -1.20331
C         36.66103        39.51087        -1.10141
C         38.01103        41.58052        -1.62668
C         36.76380        42.35389        -1.97479
C         38.04297        44.55443        -1.64806
C         36.81968        43.85543        -1.88985
C         38.11831        45.97467        -1.61699
C         36.85710        46.57227        -1.74689
C         40.64925        24.44688         1.01335
C         39.70697        25.12468         1.47568
C         40.47190        26.99003         0.13808
C         39.42780        26.50929         1.10256
C         40.30139        28.37198        -0.39357
C         39.01437        29.14004        -0.24086
C         40.23719        31.30809        -0.41865
C         39.06314        30.64058        -0.28173
C         40.28547        32.80022        -0.62792
C         39.03667        33.54678        -0.95118
C         40.29766        35.76874        -0.25635
C         39.11411        35.07239        -0.89539
C         40.23129        37.26427        -0.12624
C         38.94153        38.01026        -0.40494
C         40.14893        40.21809        -0.07419
C         39.19831        39.42877        -0.96609
C         40.10774        41.74266        -0.17279
C         39.31622        42.32199        -1.35582
C         40.36035        44.58273        -0.55922
C         39.41995        43.87324        -1.58435
C         40.64431        45.99248        -0.97888
C         39.40252        46.69499        -1.54405
C         40.55813        48.77014        -0.95721
C         39.57890        48.13462        -1.35265
C         43.00985        24.27825        -0.09542
C         41.78828        24.87194         0.28277
C         42.74803        26.96175        -0.93497
C         41.62743        26.27730        -0.14229
C         42.74348        28.46595        -0.75810
C         41.56690        29.11696        -0.58543
C         42.75692        31.30907        -0.58928
C         41.47896        30.58602        -0.90078
C         42.68095        32.59912         0.11463
C         41.44238        33.47300         0.10801
C         42.59945        35.80567         0.88888
C         41.28637        34.96163         0.64065
C         42.27945        37.27574         1.22198
C         41.31401        37.96285         0.29372
C         42.73930        40.10062         0.28692
C         41.34916        39.46162         0.36052
C         42.72695        41.63845         0.35152
C         41.47955        42.39283        -0.00163
C         42.67226        44.57317         0.60182
C         41.42639        43.87378         0.20871
C         42.69314        46.03635         0.45374
C         41.77948        46.71496        -0.34799
C         42.82030        48.87111         0.31733
C         41.96480        48.24914        -0.75944
C         43.96241        24.96440        -0.56934
C         45.32895        27.06783        -0.88496
C         44.16487        26.33739        -0.78360
C         45.34174        28.55469        -0.64691
C         44.01537        29.24100        -0.69226
C         45.24248        31.55160        -0.87671
C         43.96865        30.72085        -0.76082
C         45.18863        32.75661         0.07060
C         43.98331        33.09124         0.57991
C         45.17757        35.82375         1.16758
C         43.80719        35.25398         1.24648
C         45.35676        37.03176         1.75735
C         43.44143        38.15503         1.59410
C         44.90907        40.17116         1.68504
C         43.66641        39.44930         1.28057
C         44.91453        41.66989         1.54610
C         43.82512        42.37378         1.06198
C         44.85865        44.58964         1.74141
C         43.73361        43.84332         1.12455
C         44.89115        46.07890         1.61780
C         43.83118        46.75019         1.07489
C         43.67149        48.15306         0.86336
C         47.76546        27.26529        -0.99893
C         46.68543        26.64989        -0.98272
C         47.94083        28.66594        -0.41544
C         46.59457        29.36309        -0.70651
C         47.70871        31.55931        -0.58165
C         46.54240        30.76890        -0.67627
C         47.58988        33.04663        -0.49832
C         46.42483        33.57261         0.31696
C         47.57322        35.91618         0.26337
C         46.40382        35.05337         0.69766
C         47.59699        37.37101         0.68694
C         46.49360        37.94079         1.53357
C         47.44470        40.30701         1.38304
C         46.25920        39.43502         1.71082
C         47.47699        41.67378         1.99987
C         46.13972        42.37237         2.03237
C         47.50012        44.60758         1.78052
C         46.12531        43.87163         2.09487
C         47.25978        46.04326         2.36534
C         46.14395        46.54590         2.10900
C         50.31361        29.06960        -1.39829
C         49.09392        29.46703        -0.93114
C         50.23008        31.81131        -1.08720
C         49.04087        30.94647        -0.70148
C         50.07124        33.31771        -1.38014
C         48.73619        33.94745        -0.84839
C         49.68443        36.31134        -0.98735
C         48.65061        35.39488        -0.41116
C         49.84486        37.71936        -0.43294
C         48.61700        38.33481         0.13301
C         49.97796        40.53858         0.68431
C         48.64732        39.74945         0.69001
C         50.01443        41.65441         1.78807
C         48.75559        42.44122         1.95528
C         50.06613        44.29089         2.35123
C         48.72932        43.80886         2.20131
C         51.29269        29.80708        -1.81663
C         52.40897        32.13508        -2.21049
C         51.45784        31.15555        -1.75445
C         52.42624        33.28071        -1.67351
C         51.42575        33.98250        -0.95755
C         52.40631        36.03802         0.06636
C         51.62756        34.82343         0.11947
C         52.22697        37.24675        -0.07395
C         51.16544        38.24685         0.10108
C         52.40824        40.43875         0.96465
C         51.21861        39.60377         0.72450
C         52.43866        41.61508         1.34543
C         51.38757        42.35179         2.06009
C         51.20082        43.78431         2.28749
O         43.83987        33.92969         1.67047
O         39.37574        28.53305        -1.53382
O         36.08013        41.72921        -3.09337
O         51.01159        38.46262         1.57097
O         33.04929        33.23044        -0.16444
O         47.65312        33.68751        -1.83066
O         34.14452        31.62937         2.89211
O         39.16665        41.62963        -2.57068
O         34.67157        36.58910        -1.63670
O         40.45663        46.17991        -2.41091
O         50.28348        36.01522        -2.01131
O         45.54223        39.73257         2.92334
O         42.47852        42.12618        -1.02594
O         39.94156        33.08377        -2.00818
O         50.78153        41.47260         3.02076
O         40.21202        44.40520         0.85909
O         41.70340        32.56004         1.22539
O         40.33314        39.89130         1.34838
O         45.23485        44.26332         3.15369
O         47.72991        37.46948         2.16230
O         39.23610        27.49796         2.19919
O         46.78151        33.98943         1.65631
O         46.75888        41.81578         3.24759
O         32.79547        38.50070         1.91473
O         47.61142        40.47907        -0.06996
O         50.03711        31.46083         0.30065
O         40.26623        35.49851        -1.68782
O         36.69971        32.94620        -1.81461
O         44.29767        37.53340         2.52248
O         36.97177        35.32637        -2.19937
O         33.90758        43.02358        -3.09680
O         31.88382        39.62817        -1.37512
O         42.38303        26.71946        -2.35573
O         36.09666        32.74923         1.66799
O         47.62592        44.66775         0.45100
O         40.05164        44.06758        -2.79586
O         36.74252        30.61017        -1.12000
O         34.15737        35.88320         1.84298
O         44.63683        28.87277         0.62039
O         48.92001        38.46797        -1.29160
O         38.30492        38.09310         0.88969
H         38.93009        38.54345         1.50850
O         50.00389        33.40818        -2.80179
H         50.03042        34.36201        -3.04731
O         38.22161        37.53196        -2.69290
H         37.68735        36.88467        -3.20917
O         50.70318        34.84847         1.12068
H         50.91241        35.54610         1.77638
O         35.23976        38.72335         1.28930
H         34.63561        38.94011         2.03624
O         41.53216        37.18052         2.47822
H         42.17603        36.97265         3.19060
O         50.05982        41.23487        -0.56384
H         49.14806        41.46465        -0.85697
O         42.61888        48.27218        -1.99104
H         42.72335        49.19596        -2.29632
O         39.98811        39.31006        -2.16455
H         39.45280        38.84426        -2.85083
O         43.36567        27.47357        -3.13728
H         42.96378        27.43934        -4.03978
O         48.05732        28.52986         0.99573
H         49.00354        28.44492         1.23611
O         37.09384        27.79359        -0.74460
H         36.91742        28.47936        -1.42905
O         39.26618        42.14215         0.93755
H         39.57604        41.66838         1.74267
O         41.34977        30.62632        -2.35438
H         40.53587        30.12712        -2.59399
O         32.08690        34.48565         3.16916
H         31.50219        35.22873         3.43121
O         31.39308        35.13110        -0.34891
H         30.72925        34.40658        -0.33670
O         43.25310        39.71293        -1.00951
H         42.96121        40.39383        -1.66272
O         40.57108        34.80508         1.87070
H         41.08000        34.18294         2.43675
O         45.24198        32.01544        -2.25038
H         46.06815        32.52309        -2.41897
O         33.74527        29.19802         0.19002
H         33.74306        28.22610         0.06103
