         276
 CSIRO Nanostructure Databank - Neutral Graphene Oxide Data Set
C        -11.00271         0.73724        -1.47967
C         -9.71475         1.52182        -1.36235
C         -8.72928         0.81615        -0.44138
C         -7.41085         1.50253        -0.25218
C         -6.19670         0.72773         0.24402
C         -4.92889         1.47293         0.55151
C         -3.68350         0.68591         0.97152
C         -2.56575         1.43565         1.62988
C         -1.25746         0.70229         1.93421
C          0.03737         1.46940         2.07148
C          1.40862         0.75965         2.32398
C          2.62821         1.48908         1.68184
C          3.60192         0.70669         0.84610
C          4.80777         1.41456         0.25363
C          6.13058         0.68272         0.31731
C          7.47328         1.44868         0.12426
C          8.37697         0.70034        -0.86747
C          9.56160         1.42863        -1.41702
C         10.80237         0.66032        -1.66024
C         -9.85720         2.95454        -0.86254
C         -8.83100         3.62726        -0.29301
C         -7.49013         2.98765        -0.11421
C         -6.40058         3.66260         0.68497
C         -5.10865         2.92238         0.97178
C         -3.88079         3.71623         1.38123
C         -2.60523         2.93199         1.68180
C         -1.29312         3.67934         1.84923
C          0.01057         2.92261         1.51034
C          1.30837         3.72545         1.79840
C          2.58916         2.97408         1.44463
C          3.51760         3.64408         0.43850
C          4.71779         2.86696        -0.10773
C          5.98796         3.59213        -0.63354
C          7.31691         2.98381        -0.09689
C          8.49068         3.60493        -0.84509
C          9.59491         2.88349        -1.27492
C         -8.95063         5.08223         0.10848
C         -7.61464         5.80839        -0.00029
C         -6.44980         5.17722         0.70106
C         -5.19599         5.97692         0.94171
C         -3.89627         5.22167         1.31537
C         -2.56018         5.98205         1.26560
C         -1.29112         5.16084         1.65776
C          0.01675         5.94316         1.51831
C          1.33637         5.23699         1.77931
C          2.71018         5.95599         1.46063
C          3.57255         5.14221         0.47069
C          4.83232         5.80071        -0.06984
C          6.12544         5.01184        -0.05729
C          7.29159         5.76521        -0.68246
C          8.43282         4.99821        -1.04386
C         -7.55520         7.05347        -0.50043
C         -6.35571         7.95952        -0.41596
C         -5.20917         7.43143         0.45962
C         -3.42430         6.82778        -1.13034
C         -2.31233         6.55382        -0.13859
C         -1.02781         7.25720        -0.38328
C          0.01108         7.19548         0.69937
C          1.26397         7.98877         0.48742
C          2.57354         7.40945         0.92067
C          3.79552         8.10730         0.37315
C          4.93247         7.28344        -0.12466
C          6.24581         8.04030        -0.30842
C          7.30630         7.12876        -0.85027
C         -5.92639         8.45023        -1.79674
C         -4.69753         8.65713        -2.30957
C         -3.41890         8.16766        -1.77353
C         -2.25120         8.84931        -1.90702
C         -0.89922         8.24965        -1.54846
C          0.16905         9.29531        -1.31014
C          1.19904         9.13428        -0.45708
C          2.30277        10.15873        -0.29394
C          3.68041         9.47467        -0.23560
C          4.75511         9.85621        -1.19372
C          5.93909         9.21998        -1.22451
C        -11.13292        -0.56518        -1.18745
C        -10.15269        -1.39764        -0.38215
C         -8.87943        -0.61498        -0.06910
C         -7.66442        -1.38234         0.42014
C         -6.37148        -0.68094         0.76215
C         -5.13490        -1.43612         1.35015
C         -3.75218        -0.80424         1.10961
C         -2.57327        -1.53143         1.72166
C         -1.24986        -0.78192         1.63970
C          0.04971        -1.52083         1.70319
C          1.35013        -0.80422         2.05391
C          2.58457        -1.54540         1.63795
C          3.62712        -0.78097         0.87310
C          4.77263        -1.53526         0.22807
C          6.08110        -0.80763         0.10742
C          7.12968        -1.48306        -0.79663
C          8.51384        -0.80823        -0.63463
C          9.53612        -1.48099        -1.59627
C         10.82113        -0.68295        -1.65133
C         -9.88346        -2.78355        -0.90485
C         -8.74617        -3.49744        -0.58277
C         -7.54258        -2.80460        -0.03290
C         -6.28939        -3.56686         0.25744
C         -5.17871        -2.96852         1.11180
C         -3.90644        -3.75957         1.30495
C         -2.60604        -3.04023         1.69878
C         -1.27972        -3.77988         1.58718
C          0.02747        -3.04373         1.67591
C          1.25077        -3.69590         1.07361
C          2.53083        -2.96128         1.13272
C          3.87910        -3.66307         1.31753
C          4.85806        -3.03106         0.33010
C          6.14337        -3.76464         0.02729
C          7.26752        -3.00024        -0.60091
C          8.62803        -3.62266        -0.65773
C          9.70651        -2.90671        -1.13186
C         -8.61032        -4.86289        -0.95520
C         -7.41902        -5.61007        -0.77854
C         -6.35098        -5.09386         0.17287
C         -4.96838        -5.62595        -0.14968
C         -3.84277        -5.17341         0.75613
C         -2.53130        -5.86710         0.65006
C         -1.25666        -5.11090         0.87545
C          0.01716        -5.89023         0.74432
C          1.33079        -5.19320         0.89712
C          2.61461        -5.95565         0.98629
C          3.89011        -5.21108         1.31256
C          5.19667        -5.91509         1.06762
C          6.45679        -5.07472         0.76392
C          7.55868        -5.79342        -0.00651
C          8.68060        -5.02715        -0.43556
C         -7.29039        -6.84057        -1.40433
C         -5.96966        -7.48398        -1.74669
C         -4.80010        -6.83608        -1.01488
C         -3.53559        -7.64789        -0.92398
C         -2.35491        -7.05716        -0.25447
C         -1.23540        -7.99236         0.12191
C         -0.00675        -7.39753         0.72591
C          1.28408        -8.26839         0.77502
C          2.59631        -7.46246         1.08659
C          3.89742        -8.17387         0.85920
C          5.20337        -7.40282         0.77998
C          6.37898        -8.00886         0.07455
C          7.48412        -7.13237        -0.33459
C         -5.93429        -8.99706        -1.73149
C         -4.84772        -9.73364        -1.46264
C         -3.60951        -9.17676        -0.80324
C         -2.27083        -9.74749        -1.23449
C         -1.13141        -9.20488        -0.74492
C          0.23105        -9.49082        -1.35728
C          1.44153        -9.10220        -0.50832
C          2.64062        -9.66597        -0.74985
C          3.80426        -9.59051         0.24466
C          5.06355       -10.03684        -0.46153
C          6.19238        -9.32534        -0.58240
O          6.94777        -4.73636         2.11912
O          7.36330         3.55527         1.27629
O         -1.24145         5.86822        -0.87043
O         -2.47830        -7.00520        -1.70786
O          2.12453        -5.52846        -0.31176
O         -2.76464        -2.28470         2.93771
O         -7.40624        -0.94195         1.76823
O         -0.78638         1.16265         3.22788
O          4.66415        -5.71132         2.42380
O         -2.97747         2.11116         2.84373
O          6.34912        -3.80726        -1.41634
O         -4.10134         4.54661         2.56940
O         -3.29691        -0.21004        -0.12698
O          1.37354         4.48439         3.02248
O          3.29579         2.41390         2.58150
O          4.32347        -2.38417        -0.85643
O         -4.37482         8.24475         0.82002
O         -0.48590        -1.03643         0.42190
O         -9.26353         0.46064         0.86714
O         -3.40916        -6.12916         1.77618
O          6.33557        -0.24533         1.43377
O         -7.03823         2.37821        -1.36861
O          2.24176        -1.42678         3.03140
O          1.86638         8.32160         1.78717
O          4.57973         6.50720        -1.31778
O         -6.20325         5.80663         1.98949
O          8.33373         1.05008        -2.25978
O         -1.32175         4.56291         2.98931
O         -1.04483        -8.01124         1.56155
O          4.18934         9.28935         1.13649
O         -4.58494        -5.48102        -1.54520
O         -6.42174        -2.90785        -1.02211
O          6.44345         4.71828         1.33628
O         -6.17897         3.03205         1.97019
O         -4.93625        -3.69348         2.34425
O          6.24974        -8.06038         1.55501
O          3.32125        -8.03650         2.19378
O         -0.27450         7.23979         2.12684
O          1.14076        -9.26660         1.73507
O         -6.65597        -5.63653         1.50871
O          1.80309        -3.04008        -0.11083
O         -0.58276        -5.18164        -0.41836
O          4.40516         1.84071        -1.09453
O         -0.49200        -3.75609         2.82337
O          2.80184         4.44265        -0.54915
O         -5.20139         0.99606        -0.79524
O         -4.23583         5.95081        -1.41449
O          2.90226        -0.03698        -0.18700
O         -5.26352        -1.22155         2.77068
H         -4.87696        -2.00292         3.23593
O         -0.07091         2.77770         0.07117
H          0.73835         2.35395        -0.28713
O          3.47441         6.02378         2.66202
H          2.93339         6.46043         3.35377
O          5.96054         3.63098        -2.04474
H          5.44620         2.85646        -2.36841
O          9.00491        -1.08478         0.68101
H          8.58321        -0.45643         1.31908
O          3.50488       -10.53031         1.28172
H          2.66773       -10.19385         1.71855
O         -7.86498        -4.95365         1.96006
H         -7.68764        -4.85588         2.92776
O          8.04736        -3.79653         1.96801
H          8.62874        -4.04296         2.72809
O          2.24124        11.10501        -1.35054
H          2.67427        11.93275        -1.06235
O          6.73859         8.52924         0.95659
H          6.01779         9.07567         1.35582
O          1.65706         0.89941         3.71906
H          0.82404         0.72236         4.20968
O          6.62572        -1.23071        -2.11472
H          6.01000        -1.96887        -2.33788
O         -2.69612         7.05443         2.19512
H         -2.73108         6.66237         3.09396
O         -0.47141         7.51458        -2.72282
H         -0.79790         6.58941        -2.62744
O          4.33366        -3.23641         2.61484
H          4.80088        -4.00071         3.03785
O         -6.80792         9.16717         0.25315
H         -6.01212         9.58238         0.65628
O         -9.96514         5.73547        -0.64115
H         -9.78980         5.59843        -1.59435
O          8.21556         1.32206         1.35780
H          7.72962         1.79061         2.07233
O         -9.18365         1.55952        -2.70736
H         -8.29349         1.98686        -2.66046
O         -3.80771        -9.45241         0.61077
H         -2.95897        -9.33675         1.09146
O          0.28441        -8.77195        -2.60285
H         -0.10147        -7.87882        -2.47805
O          9.03336        -1.53705        -2.94694
H          8.62456        -0.65955        -3.14458
O        -10.81276        -1.63385         0.89813
H        -10.67866        -0.81855         1.43463
O         -5.81901        -7.13728        -3.15821
H         -5.45670        -6.22136        -3.18779
H         11.76834        -1.22099        -1.80892
H         11.73340         1.23586        -1.77543
H         10.45632         3.42907        -1.69030
H          9.28176         5.50577        -1.52548
H          8.20809         7.59573        -1.27657
H          6.72019         9.55220        -1.92527
H          4.54989        10.69297        -1.87866
H          2.13922        10.68184         0.68879
H          0.17087        10.16998        -1.97811
H         -2.24907         9.81973        -2.42887
H         -4.62961         9.22383        -3.25322
H         -6.77279         8.87200        -2.36396
H         -8.47327         7.49953        -0.91590
H         -9.25610         5.13319         1.18964
H        -10.80999         3.48274        -1.02730
H        -11.83337         1.25413        -1.98618
H        -12.09751        -1.05713        -1.39109
H        -10.72252        -3.31863        -1.37617
H         -9.44048        -5.33229        -1.50558
H         -8.14630        -7.19093        -2.00536
H         -6.83148        -9.49263        -2.13414
H         -4.90261       -10.82871        -1.56396
H         -2.23339       -10.56603        -1.96943
H          0.31062       -10.57841        -1.61134
H          2.75182       -10.35014        -1.60714
H          5.00944       -11.03142        -0.93051
H          7.04710        -9.73266        -1.14400
H          8.28820        -7.57109        -0.94593
H          9.58830        -5.56926        -0.74485
H         10.68610        -3.40015        -1.23236
