         404
 CSIRO Nanostructure Databank - Neutral Graphene Oxide Data Set
C          1.12122         3.54993        -0.16136
C         -0.06821         4.23480        -0.26332
C          1.09124         6.38598        -0.38098
C         -0.08722         5.64801        -0.35521
C          1.09659         7.85681        -0.36091
C         -0.10047         8.58817        -0.16440
C          1.10603        10.70797        -0.24440
C         -0.09670         9.96872        -0.12447
C          1.11604        12.15603        -0.18361
C         -0.08246        12.88583         0.01193
C          1.12567        15.00277         0.12867
C         -0.07813        14.25957         0.15551
C          1.11134        16.43294         0.36368
C         -0.03982        17.18727         0.59270
C          1.13840        19.22263         1.33467
C         -0.03364        18.54077         1.02329
C          1.22895        20.55155         1.92564
C          0.07971        21.43744         2.00866
C          1.24067        23.66668         1.71898
C          0.08236        22.80927         1.91551
C          1.19077        24.93719         1.02337
C         -0.02843        25.60279         0.71198
C          1.14824        27.55247        -0.21016
C         -0.04897        26.85433         0.12640
C          1.15167        28.86910        -0.76174
C         -0.00979        29.59432        -1.13036
C          1.26961        31.68374        -1.36448
C          0.06841        30.90943        -1.55729
C          1.23308        33.15093        -1.38567
C          0.20396        33.86830        -2.03285
C          1.06786        35.99052        -1.23172
C          0.16317        35.26375        -2.03069
C          1.17835        37.44785        -1.25786
C          3.58907         3.57553        -0.10274
C          2.36304         4.25604        -0.19071
C          3.56804         6.38615        -0.44659
C          2.34667         5.68701        -0.34397
C          3.55648         7.83020        -0.87793
C          2.30265         8.56815        -0.48151
C          3.56964        10.71497        -0.51420
C          2.32350         9.98900        -0.41050
C          3.55579        12.12078        -0.49643
C          2.34508        12.86880        -0.30116
C          3.59725        15.01555        -0.06591
C          2.35533        14.30490        -0.12355
C          3.66411        16.35964         0.35444
C          2.40042        17.13800         0.40610
C          3.67366        19.01979         1.56269
C          2.39918        18.54925         0.95673
C          3.73220        20.41431         2.01906
C          2.48563        21.02934         2.33331
C          3.72082        23.79095         1.73237
C          2.48975        23.24399         2.19265
C          3.66722        24.92377         0.87609
C          2.41291        25.57587         0.63502
C          3.62389        27.41680        -0.44928
C          2.39361        26.87347         0.02483
C          3.73612        28.80928        -0.98510
C          2.43495        29.55602        -1.04536
C          3.56817        31.69408        -0.24373
C          2.42948        31.03602        -0.99576
C          3.47855        33.23331        -0.14494
C          2.21730        33.86185        -0.65345
C          3.76647        36.34324        -0.18517
C          1.96338        35.22784        -0.45375
C          3.65362        37.61777        -0.82603
C          2.32278        38.17018        -1.07597
C          6.04689         3.57595        -0.05782
C          4.81802         4.27174        -0.12253
C          6.01876         6.44000        -0.30459
C          4.79639         5.71135        -0.29287
C          6.04410         7.83757        -0.44132
C          4.82862         8.58071        -0.57298
C          6.08836        10.69495        -0.57175
C          4.82308         9.97988        -0.57507
C          6.09480        12.11305        -0.62700
C          4.82492        12.83867        -0.71777
C          6.14290        14.97491        -0.12921
C          4.84829        14.35917        -0.46994
C          6.14824        16.33567         0.36455
C          4.90834        17.00310         0.55726
C          6.19623        19.10601         1.24336
C          4.95417        18.30676         1.25990
C          6.19448        20.46504         1.61640
C          4.99030        20.99166         2.19305
C          6.16192        23.54806         1.26689
C          4.98491        23.18590         1.95019
C          6.16469        24.80786         0.57088
C          4.88293        25.41495         0.31940
C          6.56311        27.64677        -0.49749
C          4.72340        26.56343        -0.49763
C          6.28634        29.00608        -0.38911
C          5.03558        29.63991        -0.87779
C          6.13829        31.95167        -0.27042
C          4.93880        31.14956        -0.66346
C          6.08793        33.31609        -0.10353
C          4.78536        34.04637        -0.01389
C          6.09750        36.14137        -0.67199
C          4.86428        35.50598        -0.31504
C          6.08121        37.51818        -1.11117
C          4.82994        38.19622        -1.28523
C          8.49725         3.55448        -0.07055
C          7.29528         4.24465        -0.02248
C          8.49555         6.34564        -0.64638
C          7.29958         5.75715         0.12109
C          8.51382         7.84819        -0.57407
C          7.32147         8.54228        -0.48530
C          8.55953        10.69108        -0.66347
C          7.31287         9.98599        -0.57401
C          8.54317        12.10986        -0.67483
C          7.31818        12.83239        -0.61386
C          8.59479        14.86272         0.09008
C          7.31542        14.25324        -0.32215
C          8.62906        16.30860         0.57807
C          7.36089        17.03643         0.60943
C          8.63599        19.14455         0.98423
C          7.40110        18.43228         0.89692
C          8.63437        20.56457         1.17860
C          7.38008        21.29435         1.38331
C          8.58230        23.42079         0.87069
C          7.34792        22.69834         1.24155
C          8.62317        24.89388         0.90799
C          7.43095        25.53290         0.48764
C          8.52263        27.67873         1.08913
C          7.51578        26.94204         0.25146
C          8.54908        29.18036         0.81651
C          7.47099        29.80200        -0.02433
C          8.62801        32.04079         0.31205
C          7.45029        31.28552        -0.16421
C          8.55314        33.45318         0.19306
C          7.33308        34.08123        -0.06015
C          8.55584        36.17511        -0.62348
C          7.32437        35.48289        -0.42831
C          8.54029        37.51817        -1.14659
C          7.29846        38.15922        -1.38720
C         11.07203         3.53912        -0.16198
C          9.80209         4.22515         0.02813
C         11.07277         6.41598        -0.53936
C          9.80976         5.73927        -0.17087
C         11.05613         7.79619        -0.76722
C          9.76527         8.52057        -1.07463
C         11.04269        10.66797        -0.68985
C          9.79986         9.98805        -0.76740
C         11.06131        12.07396        -0.63114
C          9.82024        12.81314        -0.80283
C         11.11645        14.95299        -0.06254
C          9.85516        14.31296        -0.44413
C         11.10507        16.32952         0.30096
C          9.88923        17.04825         0.49989
C         11.09746        19.16760         0.74056
C          9.87800        18.45758         0.73393
C         11.12576        20.55797         1.06062
C          9.86958        21.24249         1.19192
C         11.07974        23.46530         1.40904
C          9.89102        22.69245         0.96350
C         11.13123        24.93282         1.22399
C          9.88149        25.61089         1.01610
C         11.09688        27.77353         1.07883
C          9.88702        27.02510         1.00562
C         11.11139        29.20558         1.01367
C          9.83353        29.94562         0.91714
C         11.08677        32.07812         0.53110
C          9.83364        31.37393         0.54005
C         11.08011        33.46661         0.29605
C          9.79911        34.25672         0.44375
C         11.01101        36.20904        -0.56346
C          9.79715        35.55641        -0.31651
C         10.99779        37.55645        -1.08534
C          9.76518        38.18449        -1.35846
C         13.50637         3.53711        -0.35058
C         12.27823         4.23707        -0.31943
C         13.50959         6.35759        -0.77333
C         12.29692         5.68746        -0.50655
C         13.51539         7.78778        -0.89407
C         12.28247         8.50662        -0.83645
C         13.53760        10.60921        -0.78139
C         12.30558         9.93791        -0.77361
C         13.60587        12.03106        -0.41526
C         12.29070        12.78692        -0.29152
C         13.57939        14.90820        -0.03855
C         12.33572        14.26209        -0.21170
C         13.58090        16.32317         0.20241
C         12.35771        17.00143         0.34868
C         13.65659        19.19373         0.41613
C         12.33422        18.46345         0.36754
C         13.61513        20.65416         0.74379
C         12.34390        21.27232         1.14907
C         13.62765        23.45411         1.71570
C         12.35181        22.67410         1.58804
C         13.62350        24.93258         1.50248
C         12.34708        25.63682         1.31755
C         13.56165        27.81780         1.24714
C         12.35064        27.07449         1.19273
C         13.57844        29.22559         1.06526
C         12.32511        29.92297         0.92038
C         13.53935        32.05752         0.54132
C         12.31548        31.35243         0.66781
C         13.53208        33.45816         0.21044
C         12.29833        34.15579         0.07953
C         13.47462        36.22175        -0.57592
C         12.27192        35.54394        -0.32403
C         13.45482        37.59904        -1.02302
C         12.22361        38.23260        -1.27949
C         15.94178         3.46470        -0.58289
C         14.74310         4.17901        -0.62095
C         15.93755         6.28141        -1.14402
C         14.75352         5.61654        -0.87495
C         15.94403         7.73294        -1.39251
C         14.72713         8.50408        -1.09603
C         15.99779        10.66943        -1.11977
C         14.76845         9.91654        -1.00562
C         16.02133        12.08844        -0.93931
C         14.84732        12.79646        -0.60708
C         16.03759        14.88359        -0.06380
C         14.83561        14.19662        -0.25627
C         16.04315        16.19713         0.62106
C         14.82101        17.03100         0.48290
C         16.02648        19.06724         1.39816
C         14.86867        18.39458         0.67250
C         16.15049        20.55426         1.12011
C         14.90285        21.33265         1.05376
C         16.16843        23.44751         1.37167
C         14.91905        22.71385         1.61645
C         16.16548        24.91112         1.74412
C         14.82051        25.60679         1.49618
C         16.14109        27.83356         1.42470
C         14.81978        27.09130         1.53762
C         16.11019        29.28972         1.08240
C         14.82222        29.97624         1.00655
C         16.01514        32.16549         0.73829
C         14.77847        31.36117         0.75177
C         16.00775        33.53423         0.18553
C         14.75969        34.17769        -0.00660
C         15.94683        36.24892        -0.61814
C         14.73002        35.54951        -0.40024
C         15.91529        37.64134        -1.00556
C         14.67329        38.28291        -1.20897
C         18.47994         3.43774        -0.65353
C         17.19789         4.04644        -1.03482
C         18.48135         6.30856        -1.19893
C         17.20534         5.57127        -1.35598
C         18.51373         7.72387        -1.22568
C         17.26088         8.46249        -1.52325
C         18.59661        10.68154        -1.18378
C         17.23837         9.96764        -1.45950
C         18.57271        12.09552        -0.80492
C         17.31078        12.82871        -0.97937
C         18.58671        14.90156        -0.00184
C         17.31020        14.29445        -0.45404
C         18.61466        16.24059         0.44707
C         17.35415        16.87516         0.90411
C         18.64117        19.11558         1.07850
C         17.36787        18.33849         1.26337
C         18.59818        20.59019         0.97896
C         17.34203        21.26869         1.09275
C         18.55403        23.47155         0.85681
C         17.31913        22.74383         1.10569
C         18.51176        24.88670         0.76186
C         17.34888        25.63796         1.13002
C         18.62690        27.74222         0.91686
C         17.34939        27.02736         1.10483
C         18.61107        29.27100         0.84962
C         17.29810        29.95949         0.85698
C         18.54520        32.11096         0.22856
C         17.34648        31.42782         0.76264
C         18.49340        33.50584        -0.04326
C         17.22310        34.20710        -0.07049
C         18.41047        36.29476        -0.72081
C         17.19305        35.58173        -0.47453
C         18.36879        37.68880        -1.05299
C         17.12259        38.33847        -1.19208
C         19.63481         4.14661        -0.70201
C         20.88670         6.27444        -0.79638
C         19.66753         5.57342        -0.94819
C         20.91459         7.65480        -0.79465
C         19.72965         8.41970        -0.96904
C         20.88973        10.54777        -0.35538
C         19.76639         9.86424        -0.85273
C         20.91378        11.93033        -0.20204
C         19.75801        12.73430        -0.41502
C         21.01474        14.87027         0.00306
C         19.79359        14.17539        -0.15709
C         21.03680        16.23392         0.23790
C         19.84209        16.96311         0.47334
C         20.99684        19.17947         0.38896
C         19.85866        18.40246         0.63787
C         20.98295        20.57300         0.46395
C         19.79164        21.30869         0.72651
C         20.98804        23.50812         0.52667
C         19.76721        22.75236         0.67636
C         20.96657        24.84032         0.29156
C         19.66745        25.56512         0.05855
C         20.87193        27.76136        -0.06086
C         19.77551        27.04507         0.33493
C         20.88686        29.18833        -0.07290
C         19.78084        29.94262         0.24968
C         20.90527        32.08839        -0.35418
C         19.74092        31.38613         0.03062
C         20.88464        33.45983        -0.52967
C         19.68831        34.19509        -0.39792
C         20.84441        36.36879        -0.85763
C         19.66607        35.62828        -0.65265
C         20.79887        37.74037        -1.14544
C         19.58360        38.39630        -1.25621
O          2.66380        35.90157         0.55289
O          8.67207        15.15198         1.51682
O         16.80597        32.07037         1.97093
O         18.19012        18.60014         2.44277
O         11.47163        22.98138         2.73526
O         12.97217        12.23148         0.90484
O         14.34746        22.99955         2.93725
O          9.31996        22.97819        -0.35531
O          4.27482        18.14438         2.58472
O          9.81505        13.88331        -1.83053
O         18.02948        10.52141        -2.54353
O         18.93179        28.57393         2.09524
O          5.75540        26.89471        -1.36457
O          3.96283        33.68957         1.15563
O          9.84984         5.21281         1.17176
O         16.65470        16.11241         1.96341
O          5.10846        30.59177        -1.99620
O          4.78335        13.79879        -1.82484
O         15.53240        27.58113         2.73463
O          3.08673        28.99247        -2.27689
O          5.08885        22.18576         2.92513
O          2.52226        22.19548         3.12536
O          8.86296        29.85090         2.07877
O          2.49350        18.31675        -0.48940
O         17.36249        13.95692        -1.89446
O          7.93009        30.43622        -1.29136
O         13.00288        18.96736        -0.86858
O         16.54941         8.01394        -2.72285
O         14.33621        21.41819        -0.32297
O         17.17535         4.56989        -2.40874
O         15.64124        19.00139         2.80530
H         16.48097        18.92780         3.31869
O          8.08704        27.49311         2.47187
H          8.47721        28.24028         2.98551
O          8.35900         5.98000        -2.04681
H          8.87152         6.64373        -2.57206
O         19.37378        25.45733        -1.38756
H         19.35177        24.50119        -1.60705
O          3.51674         7.77058        -2.35898
H          3.49072         8.69540        -2.68615
O         16.38033        24.93919         3.18539
H         15.66180        24.39424         3.58656
O          7.40715         6.09083         1.52705
H          8.25370         5.70196         1.85859
O          9.66289         8.40778        -2.56886
H          8.98846         9.05970        -2.86067
O          9.74094        34.63224         1.87236
H         10.55536        35.14032         2.07473
O          3.39586        31.18238         1.11763
H          3.58405        31.93604         1.72849
H          1.13065         2.45498        -0.06288
H         -1.02197         3.68892        -0.25095
H         -1.06300         6.15020        -0.40032
H         -1.05673         8.06084        -0.04954
H         -1.05460        10.48683         0.01164
H         -1.04465        12.36158         0.07196
H         -1.03385        14.77378         0.32200
H         -1.02527        16.71060         0.49221
H         -1.00698        19.01896         1.20360
H         -0.91037        20.95429         1.99801
H         -0.90597        23.29016         1.84481
H         -0.98345        25.12696         0.97421
H         -1.02034        27.33091        -0.06649
H         -0.99360        29.10443        -1.09983
H         -0.85150        31.42096        -1.87220
H         -0.54740        33.31861        -2.61560
H         -0.58167        35.79269        -2.64168
H          0.27912        37.99751        -1.57986
H          3.59263         2.47913        -0.01034
H          2.27312        39.25518        -1.26088
H          6.03078         2.47501        -0.04080
H          4.81554        39.17847        -1.77981
H          8.48910         2.46228        -0.21055
H          7.29303        39.19906        -1.74635
H         11.07868         2.43989        -0.20620
H          9.76006        39.21751        -1.73679
H         13.50282         2.45074        -0.17765
H         12.21614        39.27114        -1.64195
H         15.94711         2.43569        -0.19282
H         14.65772        39.33453        -1.53132
H         18.48157         2.39017        -0.31737
H         17.09547        39.40278        -1.46882
H         20.58559         3.65968        -0.43838
H         21.81534         5.70697        -0.64083
H         21.87791         8.16213        -0.65604
H         21.79692         9.98797        -0.09157
H         21.84074        12.39633         0.15598
H         21.96907        14.34244        -0.12556
H         22.00748        16.74485         0.28423
H         21.93811        18.69166         0.10039
H         21.91700        21.10693         0.24799
H         21.95562        22.99828         0.63119
H         21.91367        25.38744         0.18773
H         21.74164        27.24746        -0.49271
H         21.78673        29.66974        -0.47744
H         21.85577        31.55654        -0.48689
H         21.81762        33.96677        -0.80780
H         21.82647        35.88337        -0.78484
H         21.73761        38.29200        -1.29392
H         19.54672        39.46753        -1.50011
