         620
 CSIRO Nanostructure Databank - Neutral Graphene Oxide Data Set
C         23.03924        27.39126         0.32398
C         23.00370        28.77881         0.30270
C         22.97608        31.72716         0.35114
C         22.97211        33.10147         0.32869
C         22.96500        36.03255         0.35077
C         22.95505        37.39256         0.39569
C         22.91849        40.39578        -0.04483
C         22.91561        41.73243        -0.10091
C         22.94868        44.70172        -0.32973
C         22.94196        46.13164        -0.46995
C         25.43765        24.56517         0.72327
C         24.30905        25.24780         0.43591
C         25.45737        27.43015         0.67863
C         24.25015        26.69673         0.51585
C         25.43385        28.86026         0.55672
C         24.19245        29.54621         0.40532
C         25.42281        31.70929         0.34788
C         24.19199        30.98948         0.36916
C         25.42128        33.13581         0.24793
C         24.18594        33.84875         0.27079
C         25.41894        35.99160         0.07866
C         24.18411        35.27897         0.24248
C         25.42079        37.39247         0.00564
C         24.20402        38.15364         0.30529
C         25.40352        40.37867        -0.34562
C         24.19542        39.66230         0.16171
C         25.38824        41.73862        -0.41221
C         24.18306        42.52383         0.11524
C         25.37308        44.66936        -0.61898
C         24.09446        43.95370        -0.40574
C         25.30525        46.07423        -1.11875
C         24.08161        46.83679        -0.78979
C         25.33763        48.92087        -1.08291
C         24.14951        48.26536        -0.89095
C         28.00128        23.17442         1.38442
C         27.95430        24.55629         1.15210
C         26.63208        25.27954         1.30143
C         27.91256        27.39314         0.82192
C         26.68559        26.72156         0.86569
C         27.89423        28.86354         0.86486
C         26.64802        29.59948         0.62416
C         27.91606        31.71379         0.28316
C         26.66685        30.99794         0.44293
C         27.89907        33.13630         0.08428
C         26.66317        33.85379         0.11586
C         27.90550        35.97925        -0.15248
C         26.66527        35.26523        -0.01874
C         27.91901        37.40148        -0.34670
C         26.62615        38.09007        -0.46853
C         27.92038        40.26890        -0.78367
C         26.60513        39.58366        -0.72928
C         27.88970        41.71369        -1.09511
C         26.57873        42.44986        -0.94556
C         27.87837        44.63684        -1.29843
C         26.66014        43.93247        -0.80282
C         27.86728        46.00973        -1.40112
C         26.59481        46.78439        -1.45193
C         27.81351        48.94817        -1.18410
C         26.60608        48.25870        -1.26053
C         27.88181        50.30364        -0.68212
C         30.43495        23.15495         1.17852
C         29.20721        22.48661         1.40611
C         30.40931        24.55702         0.90887
C         29.16730        25.26474         0.93564
C         30.37482        27.38201         0.42203
C         29.15905        26.69597         0.78422
C         30.35448        28.78155         0.20183
C         29.21266        29.59850         0.60398
C         30.36063        31.70791        -0.05511
C         29.14095        31.02319         0.23897
C         30.36304        33.12198        -0.20944
C         29.11977        33.85024        -0.09638
C         30.44676        35.99089        -0.13883
C         29.12185        35.26146        -0.17140
C         30.37552        37.44585        -0.53886
C         29.13183        38.12101        -0.52640
C         30.39562        40.29574        -0.73600
C         29.09934        39.56967        -0.69721
C         30.42134        41.78157        -0.96859
C         29.13779        42.50672        -1.16223
C         30.38528        44.60678        -1.60171
C         29.11460        43.86185        -1.39877
C         30.37731        46.05298        -1.41520
C         29.11736        46.75977        -1.64229
C         30.37899        49.03618        -1.45177
C         29.07576        48.27891        -1.58587
C         30.34182        50.47065        -0.99412
C         29.03349        51.00786        -0.56428
C         32.93572        20.48097         1.96099
C         31.75500        21.09656         1.67385
C         32.91376        23.16455         0.97510
C         31.69551        22.46834         1.26276
C         32.87828        24.52690         0.54609
C         31.62230        25.24752         0.56487
C         32.75318        27.18508        -0.53517
C         31.57952        26.61553         0.23886
C         32.77052        28.71901        -0.56213
C         31.52697        29.50182        -0.29731
C         32.77567        31.66806        -0.41370
C         31.57864        30.98320        -0.17109
C         32.76475        33.07035        -0.62094
C         31.56888        33.78811        -0.53498
C         32.85428        35.95889        -0.79484
C         31.52315        35.24768        -0.93494
C         32.86510        37.37453        -0.82987
C         31.60514        38.12788        -0.82579
C         32.87354        40.23183        -1.27809
C         31.62168        39.51437        -0.99134
C         32.92913        41.69984        -1.14985
C         31.66615        42.35564        -1.64808
C         32.90545        44.58722        -1.07274
C         31.70725        43.88465        -1.63112
C         32.83660        45.95668        -0.89761
C         31.66503        46.74033        -1.38523
C         32.78112        48.92832        -0.60218
C         31.67055        48.24204        -1.34600
C         32.86948        50.41889        -0.73445
C         31.59685        51.15713        -0.57733
C         32.85045        53.10778         0.20809
C         31.63107        52.46125        -0.16394
C         35.55162        18.94419         1.92710
C         35.54131        20.40535         1.79594
C         34.20214        21.19385         1.80541
C         35.37362        23.11531         0.70724
C         34.17148        22.50614         1.14383
C         35.31618        24.44668         0.20379
C         34.10171        25.16772         0.17354
C         35.28284        27.25807        -0.45602
C         34.09745        26.56631        -0.21360
C         35.31248        28.70984        -0.52588
C         34.05594        29.42665        -0.28463
C         35.33027        31.59750        -0.62971
C         34.06202        30.93657        -0.31260
C         35.32480        33.03450        -0.94834
C         34.02086        33.77939        -0.96709
C         35.31405        35.91355        -0.71132
C         34.05963        35.24873        -0.80481
C         35.33076        37.33329        -0.68138
C         34.10912        38.03890        -0.81919
C         35.38617        40.22983        -0.75252
C         34.17798        39.47492        -1.11085
C         35.35657        41.63637        -0.67701
C         34.10967        42.37128        -0.90444
C         35.28048        44.47149        -0.34439
C         34.11264        43.82668        -0.75713
C         35.20910        45.89528         0.04192
C         33.92744        46.65427        -0.19352
C         35.26434        48.84674         0.11641
C         33.95656        48.15631        -0.10132
C         35.31409        50.23445         0.12034
C         34.14227        51.06601        -0.26723
C         35.31594        53.10866         0.55846
C         34.06548        52.45744         0.21524
C         35.35280        54.48003         0.86424
C         37.91221        18.87204         1.27923
C         36.67205        18.23027         1.65369
C         37.90251        20.26188         1.00934
C         36.69208        21.03366         1.12396
C         37.83665        23.00999         0.22185
C         36.62298        22.36271         0.69112
C         37.80602        24.36262        -0.12672
C         36.51671        25.04318        -0.48747
C         37.72198        27.24616        -0.70415
C         36.55814        26.55984        -0.47151
C         37.71674        28.70150        -0.97454
C         36.48616        29.43512        -0.63864
C         37.78804        31.60613        -0.76521
C         36.51838        30.88497        -0.68352
C         37.79196        33.04385        -0.65764
C         36.57964        33.77658        -0.73875
C         37.78991        35.89949        -0.49242
C         36.56205        35.18571        -0.65893
C         37.78785        37.33153        -0.41802
C         36.57249        38.05406        -0.55320
C         37.79334        40.19056        -0.26340
C         36.57929        39.48836        -0.50770
C         37.77849        41.61632        -0.15993
C         36.56020        42.33649        -0.35031
C         37.70010        44.42980         0.26459
C         36.53342        43.76034        -0.15887
C         37.62341        45.87066         0.62888
C         36.44891        46.66910         0.26012
C         37.72751        48.77512         0.53861
C         36.46614        48.06344         0.34868
C         37.74627        50.21423         0.49455
C         36.54159        50.94183         0.36825
C         37.78060        53.07825         0.57544
C         36.54324        52.37644         0.49010
C         37.78096        54.50293         0.72959
C         36.55809        55.16274         0.95136
C         40.37020        16.03035         1.42321
C         39.18465        16.72468         1.44102
C         40.36681        18.81710         0.93420
C         39.14098        18.13299         1.20884
C         40.36358        20.20741         0.63271
C         39.11910        20.92664         0.62960
C         40.31104        22.89630        -0.25659
C         39.07426        22.27940         0.24724
C         40.31700        24.37793        -0.54574
C         39.06141        25.11483        -0.24466
C         40.30694        27.21464        -1.00342
C         39.03398        26.57961        -0.54845
C         40.31413        28.72929        -1.15726
C         39.00450        29.47041        -1.14738
C         40.25399        31.60593        -0.69305
C         39.01086        30.92125        -0.84161
C         40.25607        33.02462        -0.51190
C         39.02337        33.74974        -0.52594
C         40.24672        35.88624        -0.22289
C         39.02012        35.17891        -0.41588
C         40.24102        37.31010        -0.08942
C         39.01740        38.03685        -0.20861
C         40.23244        40.16405         0.13402
C         39.01570        39.46161        -0.11362
C         40.22435        41.60170         0.25755
C         38.99322        42.31766         0.13705
C         40.17900        44.41433         0.64850
C         38.95477        43.73401         0.35662
C         40.17311        45.84407         1.01037
C         38.89778        46.62450         0.94925
C         40.20266        48.77034         0.66809
C         38.93495        48.07983         0.71946
C         40.22157        50.19978         0.55943
C         38.99418        50.92028         0.54419
C         40.25856        53.03409         0.40203
C         39.01423        52.34417         0.51046
C         40.21997        54.49850         0.22589
C         39.01325        55.24820         0.59061
C         40.30628        57.33846         0.71381
C         39.08299        56.63477         0.70436
C         42.83939        15.99310         1.21136
C         41.60841        16.69946         1.19604
C         42.85044        18.78063         0.75382
C         41.60935        18.10041         0.95403
C         42.85243        20.19467         0.49902
C         41.60369        20.88697         0.38373
C         42.81018        22.98004        -0.13570
C         41.60459        22.25124         0.00629
C         42.80977        24.40865        -0.36195
C         41.58768        25.12057        -0.50013
C         42.77555        27.25801        -0.69137
C         41.56838        26.51957        -0.66070
C         42.75071        28.70407        -0.71573
C         41.54342        29.44340        -0.81519
C         42.69861        31.58908        -0.45547
C         41.50184        30.87855        -0.65658
C         42.71090        33.00762        -0.32792
C         41.48407        33.73528        -0.34353
C         42.70467        35.85354         0.04083
C         41.48389        35.16041        -0.16824
C         42.70638        37.28662         0.25188
C         41.45556        38.01953         0.17603
C         42.65254        40.15615         0.71150
C         41.43306        39.42573         0.31648
C         42.70116        41.62001         0.52761
C         41.44736        42.31715         0.44481
C         42.68324        44.45515         0.65983
C         41.42238        43.73700         0.59761
C         42.70755        45.85713         0.70544
C         41.46838        46.60987         0.96061
C         42.66686        48.75275         0.57721
C         41.42953        48.06762         0.71739
C         42.67414        50.17177         0.46221
C         41.46617        50.90399         0.48326
C         42.75468        53.06587         0.37387
C         41.48315        52.34504         0.38070
C         42.78908        54.49150         0.43616
C         41.55441        55.26148         0.24399
C         42.78117        57.32650         0.84367
C         41.52770        56.68199         0.60981
C         44.03339        16.65344         1.01242
C         45.32387        18.76572         0.61583
C         44.07208        18.05656         0.78938
C         45.31885        20.18052         0.44714
C         44.07148        20.89889         0.34348
C         45.26931        23.05201         0.00674
C         44.05841        22.30852         0.05701
C         45.28680        24.44702        -0.25526
C         44.03476        25.13211        -0.41245
C         45.23838        27.27514        -0.67246
C         44.01421        26.55376        -0.57796
C         45.19181        28.69474        -0.74562
C         43.99113        29.39855        -0.63067
C         45.19612        31.62899        -0.53177
C         43.97427        30.83922        -0.18556
C         45.20631        33.01919        -0.32460
C         43.94784        33.71855        -0.19505
C         45.18448        35.81068         0.12273
C         43.94321        35.12531        -0.00505
C         45.16386        37.20700         0.56322
C         43.90709        37.95336         0.49964
C         45.23741        40.13831         0.64755
C         43.96269        39.38928         0.82149
C         45.20346        41.56697         0.53572
C         43.92894        42.29151         0.53173
C         45.14471        44.44599         0.50253
C         43.93201        43.73866         0.53943
C         45.17924        45.86306         0.66046
C         43.93007        46.59232         0.70792
C         45.13887        48.74035         0.90602
C         43.89616        48.00370         0.67781
C         45.23334        50.15090         0.45677
C         43.94180        50.89748         0.25163
C         45.23026        53.04099         0.51972
C         43.97805        52.36393         0.38617
C         45.23702        54.46708         0.64552
C         43.99464        55.19246         0.62744
C         43.95645        56.62356         0.80410
C         47.75654        18.78609         0.44290
C         46.56786        18.09447         0.61387
C         47.77506        20.19153         0.34310
C         46.55342        20.88110         0.35821
C         47.81804        23.12927         0.21104
C         46.51655        22.36141         0.35848
C         47.77816        24.52015        -0.26426
C         46.52548        25.17492        -0.39890
C         47.71813        27.31195        -0.81026
C         46.50332        26.59460        -0.65258
C         47.74359        28.72114        -0.95263
C         46.44153        29.42609        -1.02032
C         47.72135        31.57652        -0.70123
C         46.40959        30.92278        -0.94479
C         47.71622        33.04304        -0.39925
C         46.42884        33.76179        -0.33059
C         47.66456        35.91502        -0.12734
C         46.41671        35.15830        -0.12173
C         47.68861        37.24094         0.21314
C         46.47240        37.96398         0.64560
C         47.68820        40.15801         0.38815
C         46.45467        39.45028         0.54382
C         47.66740        41.58517         0.34320
C         46.41785        42.26397         0.38174
C         47.68350        44.45218         0.40594
C         46.40039        43.73516         0.06076
C         47.67021        45.85366         0.58013
C         46.42120        46.54072         0.72961
C         47.70923        48.72637         0.82169
C         46.45578        47.97314         0.99836
C         47.67839        50.15991         0.78315
C         46.49983        50.88422         0.65820
C         47.70576        53.04327         0.68696
C         46.48279        52.32778         0.59166
C         47.67218        54.45717         0.75705
C         46.47725        55.14426         0.76027
C         50.31843        20.32569         0.63604
C         49.07839        20.88268        -0.01219
C         50.26089        23.09631        -0.03087
C         49.06879        22.38592         0.08947
C         50.23794        24.51908        -0.30027
C         49.00770        25.17399        -0.50650
C         50.25645        27.35033        -0.80694
C         48.99755        26.56094        -1.08498
C         50.21699        28.77504        -0.96556
C         48.95511        29.43752        -1.06602
C         50.20831        31.65574        -1.00194
C         48.93305        30.92860        -1.35138
C         50.16308        33.08564        -0.84415
C         48.96417        33.77234        -0.62704
C         50.18509        35.94348        -0.41688
C         48.88371        35.26484        -0.75912
C         50.17263        37.26538        -0.07614
C         48.97563        37.96521         0.49652
C         50.13200        40.19416         0.20383
C         48.94172        39.47014         0.27579
C         50.14370        41.62364         0.26008
C         48.91245        42.31288         0.29874
C         50.14587        44.47195         0.42105
C         48.90832        43.75385         0.37855
C         50.12802        45.88136         0.53133
C         48.90888        46.57664         0.65808
C         50.17196        48.71171         1.03748
C         48.91558        48.01981         0.78358
C         50.08978        50.17438         1.45493
C         49.00979        50.83808         0.59290
C         50.19569        52.96315         0.81296
C         48.97923        52.33932         0.74511
C         51.46876        21.03954         0.62113
C         52.71874        23.15381         0.11573
C         51.51723        22.41750         0.16972
C         52.68402        24.57522        -0.12540
C         51.48340        25.23933        -0.36426
C         52.70660        27.40731        -0.68981
C         51.46702        26.68592        -0.60241
C         52.68166        28.82748        -0.95241
C         51.43359        29.51866        -1.00740
C         52.67268        31.69346        -1.09744
C         51.42448        30.96386        -1.05222
C         52.64198        33.10194        -1.02747
C         51.41877        33.81681        -0.85539
C         52.67654        35.86870        -0.37116
C         51.42947        35.21569        -0.62994
C         52.66588        37.24747         0.13741
C         51.42987        38.02620        -0.12665
C         52.70999        40.19304         0.30461
C         51.42927        39.50062         0.00493
C         52.66749        41.64246         0.35889
C         51.40662        42.34223         0.30086
C         52.63985        44.48385         0.38347
C         51.40061        43.75461         0.35160
C         52.65979        45.90182         0.50500
C         51.38864        46.68656         0.32155
C         52.62282        48.66574         1.46505
C         51.35384        48.02964         1.02225
C         52.62111        50.15668         1.84036
C         51.41442        50.89396         1.29984
C         51.42138        52.21489         0.98428
C         55.18094        23.20100         0.12214
C         53.99246        22.51164         0.25392
C         55.22478        24.60408        -0.05941
C         53.94090        25.37281         0.13910
C         55.16751        27.37692        -0.75137
C         53.94059        26.73752        -0.49815
C         55.14216        28.76513        -1.25776
C         53.89257        29.53889        -1.13158
C         55.16666        31.65389        -1.24991
C         53.91954        30.96412        -1.20776
C         55.20506        33.11981        -1.26851
C         53.88781        33.88292        -1.13498
C         55.14618        35.93965        -0.34639
C         53.90530        35.24740        -0.57821
C         55.20531        37.30123        -0.02606
C         53.94815        38.00574         0.28634
C         55.19289        40.15592         0.50064
C         53.89463        39.48705         0.31861
C         55.17031        41.66890         0.53882
C         53.87389        42.36052         0.40635
C         55.12052        44.49521         0.33818
C         53.87896        43.78236         0.36998
C         55.11627        45.90413         0.46549
C         53.87020        46.58154         0.61630
C         55.14735        48.75557         0.94589
C         53.90855        47.97739         1.10740
C         55.07962        50.16650         1.18950
C         53.94217        50.82224         1.55175
C         57.70903        24.66519        -0.05242
C         56.43745        25.31644        -0.21572
C         57.65848        27.43795        -0.63364
C         56.41329        26.71908        -0.53536
C         57.70031        28.81833        -0.97071
C         56.45605        29.51283        -1.36525
C         57.63926        31.68611        -1.19780
C         56.42493        30.98837        -1.25285
C         57.66201        33.09425        -0.90435
C         56.44286        33.78296        -0.84010
C         57.73722        35.92278        -0.28171
C         56.39383        35.15210        -0.34712
C         57.67661        37.38935        -0.32995
C         56.44205        38.05372        -0.06849
C         57.62299        40.22321        -0.12091
C         56.43786        39.46586         0.08689
C         57.61167        41.67370        -0.05051
C         56.40691        42.38731         0.19098
C         57.58026        44.53865         0.02094
C         56.36939        43.79696         0.17165
C         57.55840        45.96623         0.13784
C         56.34081        46.65298         0.40885
C         57.58021        48.78158         0.40645
C         56.34075        48.08156         0.57725
C         58.88133        25.36430        -0.08930
C         60.09627        27.50039        -0.36526
C         58.88872        26.77265        -0.35720
C         60.10873        28.85508        -0.66909
C         58.91307        29.52714        -0.99065
C         60.15192        31.72814        -1.29001
C         58.90407        30.93973        -1.56808
C         60.14241        33.04518        -1.00297
C         58.92127        33.81072        -0.83150
C         60.10273        36.01704        -0.96492
C         58.94669        35.20911        -0.71312
C         60.06477        37.38461        -0.87596
C         58.86025        38.11623        -0.56854
C         60.00453        40.32505        -0.71791
C         58.83422        39.55004        -0.47892
C         59.99560        41.69618        -0.61982
C         58.80912        42.41206        -0.29548
C         59.99644        44.62121        -0.35799
C         58.80476        43.85166        -0.21369
C         59.98042        45.99665        -0.25902
C         58.77393        46.69785        -0.00145
C         58.74832        48.11774         0.12489
O         51.50764        38.85832        -1.34995
O         26.29123        44.43839         0.53856
O         54.56068        33.75946        -2.43886
O         32.04855        47.59957        -2.59028
O         45.73108        48.44182         2.20161
O         40.18386        23.43186        -1.64302
O         40.38120        27.82080        -2.31522
O         38.19692        29.11396        -2.31464
O         44.71009        50.35243        -0.90056
O         28.71444        29.36572         1.97178
O         47.17492        22.93773         1.54616
O         53.34492        47.93641         2.52167
O         46.30718        30.25318        -2.26762
O         55.82079        28.96127        -2.56538
O         45.87581        37.43100         1.87075
O         32.86144        48.57995         0.81890
O         55.30553        40.87709         1.77736
O         30.58679        41.27950         0.39239
O         33.62992        39.75803        -2.44835
O         26.37948        38.66073        -1.84622
O         43.19529        39.74715         2.02098
O         57.13378        35.33313         0.90970
O         31.17411        44.36772        -2.90379
O         30.42644        50.11431        -2.43254
O         29.01671        47.59576        -2.87441
O         38.01104        46.17865         2.02472
O         34.21637        46.08285         1.12806
O         25.71085        46.26226        -2.51138
O         53.24167        37.41990         1.46438
O         40.88121        46.17934         2.25239
O         35.07981        21.12306         2.98539
O         27.00198        41.99357        -2.25816
O         33.81289        50.92670        -1.71409
O         34.08432        30.17581         0.97340
O         24.38580        39.09553         1.49370
O         47.87477        31.98755         0.67497
O         32.01147        29.19237        -1.71867
O         40.85986        54.95193        -1.01052
O         34.62950        33.33475        -2.23587
O         39.22766        26.10755         0.84712
O         46.33896        43.78095        -1.42428
H         46.36482        44.72582        -1.68734
O         58.86154        30.75831        -3.02318
H         58.03831        30.26909        -3.24066
O         26.38764        25.33159         2.76045
H         27.09354        25.88789         3.15431
O         49.70490        50.25378         2.84163
H         50.53372        50.17727         3.37564
O         48.79222        31.09310        -2.79652
H         47.90745        30.71783        -3.03889
O         48.69484        35.50728        -2.20514
H         49.47124        35.13278        -2.67453
O         31.55811        41.90958        -3.02365
H         31.36490        42.70681        -3.57588
O         51.39731        47.02206        -1.12014
H         50.59667        47.56096        -1.30109
O         49.39774        50.56661        -0.79346
H         48.77360        51.04616        -1.37819
O         49.00455        26.35992        -2.55361
H         48.97912        27.24899        -2.96891
O         53.89764        25.64592         1.59918
H         53.91386        24.77588         2.05305
O         52.44519        50.20574         3.29777
H         52.96562        49.44224         3.64903
O         31.13738        35.30053        -2.33004
H         31.84058        34.87124        -2.86143
O         24.37302        42.65810         1.55246
H         25.14145        43.26448         1.67739
O         36.32320        24.73483        -1.92515
H         36.24886        23.76072        -2.01434
O         49.22189        20.60737        -1.46192
H         50.08200        20.98504        -1.74650
O         44.02343        30.70774         1.30658
H         44.04347        31.61741         1.67633
O         30.90218        35.96450         1.25284
H         30.23033        36.42044         1.80202
O         49.14667        37.82555         1.95577
H         48.26685        37.93633         2.37867
O         32.50161        26.73292        -1.90414
H         32.04650        27.48119        -2.36354
H         22.10798        26.82089         0.19534
H         22.03484        29.27804         0.16903
H         22.01425        31.19842         0.37870
H         22.00556        33.62131         0.33617
H         22.00829        35.50165         0.44141
H         22.01022        37.92901         0.55608
H         21.98098        39.83207        -0.15705
H         21.96832        42.26838        -0.25571
H         21.99200        44.22109        -0.08132
H         22.00301        46.67013        -0.27796
H         25.45735        23.46974         0.63015
H         23.40957        24.71556         0.09058
H         25.31915        50.01880        -1.11811
H         23.22328        48.84497        -0.76694
H         27.07161        22.62340         1.58176
H         26.95062        50.77309        -0.33591
H         29.18702        21.40784         1.60554
H         28.99824        52.01389        -0.12383
H         32.93630        19.46374         2.37441
H         30.82446        20.53638         1.83218
H         32.78123        54.15584         0.52828
H         30.70324        53.04463        -0.08575
H         34.65734        18.43235         2.30746
H         34.41937        55.04480         0.98563
H         36.64490        17.14074         1.78604
H         36.53751        56.24371         1.14011
H         40.37664        14.94523         1.60046
H         38.25621        16.17202         1.63494
H         40.29325        58.42074         0.90746
H         38.16803        57.21414         0.88734
H         42.83168        14.90851         1.39142
H         42.79161        58.40736         1.04591
H         44.96639        16.07526         1.03752
H         44.89352        57.17051         0.96808
H         48.69740        18.22175         0.38779
H         46.60735        17.00219         0.71700
H         48.60840        55.02516         0.83331
H         46.50511        56.23810         0.83977
H         50.31901        19.29694         1.02344
H         50.27921        54.05901         0.80870
H         52.38291        20.58401         1.02772
H         52.36453        52.77950         0.95247
H         56.11385        22.62073         0.12956
H         54.03288        21.42239         0.38408
H         55.99776        50.76142         1.07950
H         54.01159        51.89733         1.77207
H         57.74214        23.58910         0.16265
H         57.60390        49.87464         0.50839
H         59.83897        24.85371         0.08746
H         61.03818        26.97915        -0.14188
H         61.06773        29.38934        -0.68556
H         61.11816        31.22354        -1.43162
H         61.10215        33.56435        -0.86669
H         61.04790        35.53237        -1.24610
H         60.99177        37.93856        -1.07335
H         60.94420        39.82731        -0.98978
H         60.92811        42.24023        -0.81816
H         60.95588        44.12003        -0.54140
H         60.91489        46.56571        -0.36891
H         59.68625        48.67916         0.00521
