         261
 CSIRO Nanostructure Databank - Neutral Graphene Oxide Data Set
C        -11.12697         0.73280        -0.55133
C         -9.98886         1.52981        -0.11076
C         -8.70555         0.82108         0.06983
C         -7.71211         0.78674         2.56484
C         -6.37673         0.59589         1.83913
C         -5.15742         1.52242         1.79356
C         -3.83639         0.77473         1.53503
C         -2.54118         1.53052         1.80096
C         -1.25873         0.75456         1.72642
C          0.01245         1.41302         1.27436
C          1.28888         0.69807         1.64485
C          2.57866         1.43193         1.74580
C          3.87826         0.64352         1.58304
C          5.07183         1.38881         1.06116
C          6.39684         0.68940         0.82362
C          7.69020         1.48072         0.96572
C          8.89587         0.64382         1.20093
C         10.34841         1.74485        -0.07856
C         10.99479         0.84579        -1.03939
C        -10.00314         2.89831        -0.05869
C         -8.83170         3.71424         0.27564
C         -7.85946         3.26986         1.33395
C         -6.43919         3.85789         1.32509
C         -5.15780         3.06278         1.64700
C         -3.80100         3.82135         1.46917
C         -2.51638         3.03569         1.53711
C         -1.29317         3.59334         0.82488
C          0.02747         2.84706         0.89478
C          1.34873         3.58271         0.99680
C          2.56102         2.94177         1.66835
C          3.85077         3.67384         1.48475
C          5.06211         2.87850         1.04829
C          6.36336         3.64517         0.92515
C          7.70043         3.00664         1.05787
C          9.03622         3.73943         0.68534
C          9.81623         2.96253        -0.37108
C         -8.69808         4.94314        -0.27763
C         -7.56209         5.89261        -0.00613
C         -6.37415         5.25562         0.75625
C         -5.04101         5.99066         0.63108
C         -3.75776         5.27775         0.96930
C         -2.38071         5.96014         0.70335
C         -1.26685         4.99532         0.30870
C          0.08751         5.61099        -0.16454
C          1.36212         5.02932         0.59926
C          2.54509         5.88194         1.03119
C          3.86688         5.14541         1.12079
C          5.09481         5.81402         0.57062
C          6.04508         4.79794        -0.01054
C          8.03362         6.07622        -0.13702
C          8.95368         5.24795         0.33674
C         -7.13780         6.55446        -1.30629
C         -6.03431         7.33455        -1.33304
C         -5.15374         7.37166        -0.09106
C         -3.74024         7.78350        -0.63369
C         -2.46191         7.10276        -0.33481
C         -1.18209         7.88977        -0.52420
C          0.07966         7.15673        -0.22153
C          1.09860         7.88503         0.61362
C          2.51810         7.32575         0.63672
C          3.67597         7.89199        -0.14984
C          4.98617         7.15911        -0.09843
C          6.30666         7.93997        -0.11283
C          7.42977         7.10517        -0.73892
C         -5.76308         8.30483        -2.39300
C         -4.78784         9.23720        -2.32570
C         -3.79802         9.30340        -1.17535
C         -2.39560         9.56660        -1.54213
C         -1.31628         9.48988        -0.49912
C         -0.02693        10.20277        -0.96319
C          1.21619        10.10714        -0.51956
C          2.49076        10.18311        -0.14798
C          3.56802         9.31155        -0.78479
C          4.94547         9.95172        -0.86535
C          6.12154         9.31760        -0.72116
C        -11.07440        -0.61565        -0.67839
C         -9.93000        -1.42186        -0.17925
C         -8.73784        -0.65244         0.33980
C         -7.40514        -1.34665         0.39005
C         -6.32390        -0.83174         1.32054
C         -5.03519        -1.56741         1.29577
C         -3.78166        -0.73961         1.40421
C         -2.51115        -1.52417         1.63326
C         -1.23432        -0.76511         1.67510
C         -0.02798        -1.41358         1.05932
C          1.28540        -0.69374         1.07819
C          2.57249        -1.43364         0.80591
C          3.85908        -0.84136         1.33301
C          5.14737        -1.65662         1.08056
C          6.40332        -0.84062         0.75043
C          7.73189        -1.56443         0.80360
C          8.89696        -0.70459         1.09487
C         10.38109        -1.56835        -0.33566
C         11.02875        -0.51995        -1.12590
C         -9.72505        -2.80084        -0.71475
C         -8.52395        -3.42235        -0.70666
C         -7.32563        -2.74148        -0.14285
C         -6.15189        -3.63661         0.17691
C         -4.93750        -2.95399         0.69382
C         -3.80800        -3.76777         1.22701
C         -2.51351        -3.03959         1.45483
C         -1.20987        -3.74491         1.12139
C         -0.07478        -2.87189         0.65103
C          1.17955        -3.52974         0.13615
C          2.51419        -2.82864         0.23373
C          3.78775        -3.70329         0.31191
C          4.96042        -2.76752         0.05157
C          6.04610        -2.96702        -0.97098
C          7.98027        -3.10412         0.79644
C          8.85264        -3.59114        -0.33441
C          9.88643        -2.71582        -0.90180
C         -8.20297        -4.66355        -1.52768
C         -7.23426        -5.64439        -0.86073
C         -6.45698        -5.14419         0.38242
C         -5.12057        -5.95966         0.59421
C         -3.82259        -5.25202         0.94279
C         -2.50313        -5.98086         0.76343
C         -1.21667        -5.18343         0.65238
C         -0.09072        -5.77267        -0.17832
C          1.20083        -5.02532        -0.16841
C          2.49303        -5.78919        -0.18375
C          3.67460        -4.93129        -0.61519
C          4.81425        -5.59240        -1.32809
C          6.21605        -5.10216        -1.78151
C          7.39035        -5.63885        -0.96234
C          8.61069        -4.79804        -0.94778
C         -7.18499        -6.93731        -1.24262
C         -6.48762        -7.95885        -0.35515
C         -5.11685        -7.35319         0.07491
C         -3.95141        -7.95168        -0.73162
C         -2.43374        -7.43975         0.43096
C         -1.39562        -7.99153        -0.47059
C         -0.11784        -7.22844        -0.58318
C          1.12246        -8.07032        -0.33875
C          2.43034        -7.27679        -0.39244
C          3.54874        -7.89147        -1.20339
C          4.82408        -7.10204        -1.38985
C          6.14546        -7.79514        -1.11453
C          7.32470        -6.97240        -0.70359
C         -6.29563        -9.37268        -0.86505
C         -5.13780       -10.07579        -0.81863
C         -3.82373        -9.46328        -0.59515
C         -2.66501       -10.13945        -0.33447
C         -1.28485        -9.50834        -0.55801
C          0.06353        -9.85941         0.19989
C          1.21311        -9.53045        -0.73110
C          2.40466       -10.16316        -0.85309
C          3.61467        -9.39879        -1.27919
C          4.96058        -9.98802        -1.06173
C          6.07424        -9.25240        -0.83671
O         -4.44063         6.13064         1.93932
O         -5.93010        -1.69476         2.43805
O         -1.78672         1.22295         2.99985
O         -1.03320        -7.35346        -1.71408
O          7.08662         1.19124        -0.34987
O          1.84391         0.95725         2.93862
O         -3.32443        -3.53171         2.56521
O          3.97740        -0.30046         2.68708
O          0.40532        -5.14439        -1.39681
O         -0.26760         7.55613        -1.57917
O         -6.90536        -1.58769        -0.96247
O         -3.70344        -7.37914        -1.82732
O          3.24904         3.52058         2.80948
O          3.75518        -4.88194        -2.05237
O         -9.72202        -1.18899         1.26245
O          4.14276         7.01882        -1.26046
O         -5.13710         2.39896         2.93431
O         -3.13067        -5.88022         2.06438
O          7.08109         3.69633         2.19315
O          3.24256        -8.57518        -2.44456
O         -8.29198         2.76516         2.36442
O          0.42217        -0.64971        -0.08929
O         -1.67173         3.91442        -0.56448
O          6.13010         4.60533        -1.21439
O          6.37474        -4.71508        -2.92049
O         -7.63028         1.39726        -0.15573
O          4.86326         5.79056         1.98592
O          0.57924        -8.69386         1.00619
O         -6.75862         0.48182         3.32483
O          4.98964        -2.32264        -1.35115
O         10.15924         1.25830         1.24384
O          0.21238        -2.92596        -0.76411
O         -5.14069        -7.14394         1.49333
O         10.15119        -1.34940         1.04623
O          2.68002        -1.68814        -0.63179
O          4.69308         2.12763        -0.14721
O         -1.78498        -1.30285         2.89478
O         -3.23045         6.81955        -1.55069
O          2.58048         6.91198         2.05262
O          7.07851        -1.23641        -0.48097
O         -5.67136         8.25759         0.82337
O         -7.28692        -5.37535         1.45851
O          0.04109         1.80711        -0.12755
O         -2.98000         3.77639         2.68513
O         -5.04541        -3.26964        -0.73289
O         -0.75720        -4.80869         1.99695
O         -6.64018         5.03956         2.16786
O         -3.72571         0.14367         0.22130
O          5.65802        -7.54452        -2.48394
O          1.86553         3.99574        -0.30660
O          7.48202        -3.85863         1.60326
O          2.80090        -6.71044         0.90036
O          0.70941         8.60542         1.51272
O          3.13931         9.14131        -2.14846
H          3.62076         8.36743        -2.52040
O          3.84450        -4.27125         1.62884
H          4.55678        -3.82232         2.15101
O          9.79653         3.70408         1.90478
H          9.21758         4.03473         2.62517
O         -7.30717        -8.08238         0.80647
H         -7.39197        -7.17382         1.22742
O          0.24382         5.23021        -1.52127
H         -0.08984         4.31130        -1.63478
O         -4.24062        10.12276        -0.11301
H         -5.00504         9.65030         0.35432
O         -7.62297        -4.19524        -2.75519
H         -6.87386        -3.59784        -2.54109
O          5.44110        -2.31021         2.34337
H          5.14180        -1.71788         3.07307
O         -1.92898         6.55475         1.92648
H         -2.72385         6.75577         2.47803
O         -2.64191        -8.22028         1.50589
H         -3.16517        -7.68245         2.16688
O         -1.70341         9.94440         0.76986
H         -2.67345        10.14863         0.76945
O          6.59759         8.13524         1.28680
H          7.42731         8.64894         1.36585
O         -0.98630        -9.87860        -1.92278
H         -1.44967        -9.25281        -2.52316
O         -8.07397         6.96071         0.82087
H         -7.30259         7.56252         1.03016
H         11.48927        -0.90885        -2.05059
H         11.44497         1.37473        -1.89644
H          9.90254         3.37808        -1.38442
H          9.89440         5.74529         0.65310
H          7.57674         7.21683        -1.82944
H          7.04760         9.88404        -0.91522
H          4.95824        10.98578        -1.24552
H          2.76862        10.84817         0.68785
H         -0.19992        10.95189        -1.75900
H         -2.08438         9.21384        -2.54155
H         -4.68596         9.98044        -3.13016
H         -6.44981         8.30569        -3.25398
H         -7.85868         6.58303        -2.13946
H         -9.47133         5.30451        -0.97567
H        -10.92885         3.43616        -0.32331
H        -12.03645         1.27282        -0.85579
H        -11.93844        -1.15831        -1.09013
H        -10.58505        -3.27440        -1.21456
H         -9.14624        -5.20187        -1.79571
H         -7.79460        -7.29241        -2.08871
H         -7.22375        -9.91774        -1.09734
H         -5.15519       -11.14988        -1.06442
H         -2.69975       -11.23912        -0.26293
H          0.07520       -10.80731         0.78040
H          2.47559       -11.25573        -0.74298
H          4.99764       -11.07373        -0.88135
H          7.00479        -9.75984        -0.53967
H          8.16282        -7.49385        -0.21452
H          9.33453        -5.08987        -1.73300
H         10.16860        -2.92647        -1.94568
