         324
 CSIRO Nanostructure Databank - Neutral Graphene Oxide Data Set
C         30.40716        57.01835        -0.02894
C         30.36846        58.42426        -0.08058
C         29.28543        59.13971        -0.72817
C         30.54703        61.20116        -1.43996
C         29.39230        60.37218        -1.34104
C         32.77737        52.73129         1.01387
C         32.68116        54.20975         1.23641
C         31.54109        54.89493         0.53448
C         32.70397        57.02769         0.89398
C         31.52474        56.29048         0.48997
C         32.65082        58.45314         0.90127
C         31.45441        59.12498         0.50475
C         32.94669        61.59104        -0.78403
C         31.63020        61.13122        -0.56297
C         35.21743        48.45477         0.96269
C         34.79033        49.65638         0.43043
C         33.82303        50.58568         0.89073
C         35.16875        52.78689         0.32397
C         33.90971        52.01475         0.68385
C         35.20049        54.26014         0.62212
C         33.96429        54.95848         1.01312
C         35.21714        57.10276         1.05648
C         33.96065        56.35031         1.04144
C         35.14690        58.57836         1.19349
C         33.82734        59.20256         1.09181
C         35.38733        61.38548        -0.25823
C         34.04450        61.22234         0.03474
C         37.66848        44.33169        -0.23772
C         37.65232        45.72323        -0.11183
C         36.57054        46.40391         0.45983
C         37.73398        48.61438         0.09635
C         36.61302        47.86065         0.82164
C         37.78799        50.04098         0.07645
C         36.60967        50.81174        -0.06686
C         37.74767        52.87447         0.41045
C         36.51260        52.13932         0.28820
C         37.75196        54.28379         0.57592
C         36.48743        54.94536         1.06955
C         37.67170        57.20576         0.84493
C         36.43679        56.45870         0.91249
C         37.67963        58.58278         0.95230
C         36.44131        59.40695         1.08719
C         37.74138        61.34379         0.21343
C         36.50823        60.76301         0.41583
C         40.12944        40.03314        -0.61611
C         40.10844        41.46626        -0.65709
C         38.92244        42.15168        -0.61834
C         40.15803        44.26285        -0.28051
C         38.85952        43.63794        -0.84350
C         40.16668        45.76908        -0.41007
C         38.86158        46.48887        -0.61407
C         40.16660        48.62914        -0.29430
C         38.91898        47.93145        -0.18039
C         40.21462        50.04045        -0.11663
C         39.00742        50.76136         0.06064
C         40.21294        52.90620         0.10391
C         38.98145        52.18541         0.18660
C         40.17871        54.33246         0.22766
C         38.96101        55.00002         0.46406
C         40.20876        57.10232         1.07093
C         38.96121        56.51764         0.40924
C         40.22060        58.60102         1.31169
C         38.93110        59.33508         1.16872
C         40.28731        61.40250         0.56522
C         38.97132        60.81206         0.81274
C         42.87478        35.89446        -0.83441
C         42.68239        37.24398        -0.53172
C         41.46551        37.94731        -0.69981
C         42.49568        40.12663        -0.03941
C         41.34266        39.34363        -0.47039
C         42.58781        41.49910        -0.19040
C         41.44933        42.12882        -0.98682
C         42.64929        44.34579        -0.38993
C         41.40628        43.68306        -0.96004
C         42.63223        45.74188        -0.37910
C         41.36412        46.46066        -0.45876
C         42.63426        48.60456        -0.49706
C         41.39042        47.90630        -0.45051
C         42.66274        50.02493        -0.38611
C         41.44763        50.76132        -0.20087
C         42.69673        52.93910        -0.33823
C         41.42291        52.17223        -0.11798
C         42.63933        54.21025         0.52938
C         41.46961        55.12291         0.05997
C         42.67844        57.12008         1.00614
C         41.50281        56.45592         0.78700
C         42.71477        58.56889         1.31307
C         41.47898        59.33879         1.21595
C         42.73577        61.40233         0.61286
C         41.48201        60.72052         0.83688
C         45.33499        33.12404        -0.15308
C         44.17535        33.78655        -0.56056
C         45.21375        35.90628         0.01792
C         44.08876        35.19825        -0.47450
C         45.19564        37.40719        -0.03423
C         43.78815        37.93671         0.17717
C         44.84060        40.14612         0.87475
C         43.63355        39.40198         0.50508
C         44.94344        41.52331         0.71700
C         43.79536        42.22185         0.15656
C         45.07151        44.37316        -0.00187
C         43.84154        43.63027        -0.06726
C         45.09163        45.72462        -0.33642
C         43.86790        46.47325        -0.43173
C         45.10045        48.59769        -1.06381
C         43.86314        47.86556        -0.60465
C         45.12185        50.03416        -0.61421
C         43.93349        50.72575        -0.36833
C         45.17418        52.85551        -0.10484
C         43.95559        52.13973        -0.15305
C         45.18858        54.26139         0.14531
C         43.97516        54.93220         0.63512
C         45.19938        57.17010         0.45173
C         43.99365        56.42147         0.88299
C         45.17591        58.55279         0.37668
C         44.05721        59.31790         0.92402
C         45.17749        61.44492         0.29478
C         43.96116        60.75976         0.59233
C         46.42885        33.82761         0.35152
C         47.51318        35.99177         0.94493
C         46.38771        35.24215         0.45023
C         47.45701        37.37485         1.19568
C         46.17491        38.03557         0.92596
C         47.69857        40.35695         1.71899
C         45.86082        39.27209         1.41816
C         47.54857        41.58636         1.13903
C         46.22220        42.28263         1.00785
C         47.62905        44.31046         0.18165
C         46.30305        43.70362         0.49809
C         47.65086        45.64112        -0.48233
C         46.36886        46.39440        -0.68588
C         47.60618        48.53343        -0.86531
C         46.41170        47.87710        -0.78983
C         47.67801        50.01863        -0.98007
C         46.36896        50.77967        -0.78347
C         47.63980        52.83766        -0.19700
C         46.41331        52.17607        -0.34053
C         47.63547        54.27139        -0.00673
C         46.39726        54.99081         0.09205
C         47.60582        57.13307        -0.11270
C         46.39135        56.42737         0.13082
C         47.62508        58.57939        -0.21802
C         46.29407        59.29275        -0.32702
C         47.60290        61.43776        -0.07046
C         46.37309        60.76404         0.03182
C         48.66802        38.08343         1.48084
C         50.05021        40.14002         1.15830
C         48.85678        39.49779         1.51987
C         50.08574        41.55670         0.90582
C         48.83833        42.38478         1.21068
C         50.13209        44.41583         0.45767
C         48.80165        43.70716         0.50007
C         50.10898        45.76636        -0.20551
C         48.92634        46.39026        -0.50008
C         50.20661        48.57162        -0.80060
C         48.89759        47.79774        -0.92394
C         50.17166        50.02290        -0.53847
C         48.92935        50.72850        -0.61325
C         50.11510        52.75150         0.13512
C         48.87293        52.09066        -0.27602
C         50.11246        54.28496         0.22361
C         48.83879        55.00106         0.01400
C         50.07824        57.10479        -0.38406
C         48.81386        56.40347        -0.12352
C         50.08952        58.59805        -0.53425
C         48.80278        59.29623        -0.34195
C         50.06301        61.43096        -0.30098
C         48.83437        60.75106        -0.26572
C         51.21825        42.14861         0.39956
C         52.55628        44.28405        -0.00453
C         51.24271        43.55148        -0.15815
C         52.60398        45.67818        -0.06020
C         51.37930        46.44211        -0.26211
C         52.64536        48.54127        -0.23610
C         51.42494        47.82932        -0.42148
C         52.64931        49.96355        -0.20947
C         51.39553        50.68105        -0.27841
C         52.61480        52.80674         0.04868
C         51.40895        52.08832        -0.05736
C         52.60248        54.25782         0.05168
C         51.38523        54.95374         0.01477
C         52.60627        57.19404        -0.13480
C         51.34427        56.42373        -0.00504
C         52.58634        58.65221        -0.40775
C         51.37144        59.33557        -0.40793
C         52.55761        61.46381        -0.29032
C         51.33483        60.76848        -0.35670
C         53.83295        46.40370         0.01652
C         55.08138        48.55270         0.09246
C         53.86497        47.80665        -0.04331
C         55.09092        49.93489         0.10474
C         53.86661        50.67208        -0.01573
C         55.08868        52.83941         0.08139
C         53.87060        52.11082         0.03883
C         55.07836        54.27836        -0.02004
C         53.84391        54.96349        -0.07779
C         55.12371        57.18222        -0.47721
C         53.83234        56.40239        -0.40171
C         55.08126        58.66456        -0.35351
C         53.83246        59.35079        -0.37522
C         55.03738        61.46815        -0.14677
C         53.80515        60.78355        -0.29395
C         56.40059        50.65521         0.34857
C         57.53318        52.86534         0.14981
C         56.35279        52.15697         0.15478
C         57.56715        54.30897         0.14388
C         56.30817        55.01663         0.01381
C         57.50909        57.16866         0.10512
C         56.33309        56.43794        -0.08507
C         57.52021        58.57016        -0.18804
C         56.30191        59.36412        -0.29311
C         57.45117        61.60702         0.16186
C         56.28188        60.81346        -0.15070
C         58.75656        55.00700         0.27238
C         60.04449        57.21032         0.31201
C         58.75914        56.47564         0.59404
C         60.03954        58.52827        -0.10418
C         58.77576        59.11170        -0.48294
C         60.01172        61.60442         0.30874
C         58.74514        61.23562        -0.19522
C         61.19604        59.39977        -0.06223
C         61.14998        60.77148         0.16684
O         35.81855        59.20948         2.37543
O         46.64487        39.79765         2.44006
O         31.38378        60.48546         0.68839
O         35.06611        53.78323        -0.76345
O         46.11929        43.40817         1.95580
O         43.70304        58.98611         2.29547
O         52.02624        56.95487         1.20497
O         43.38582        38.32526         1.51055
O         50.10791        57.70554        -1.72614
O         33.72493        60.54656         1.25885
O         54.45852        56.68907        -1.69598
O         40.10932        57.61005         2.42033
O         35.53040        50.16028        -0.65377
O         46.98809        50.57010        -2.14730
O         47.00975        45.67591        -1.81262
O         58.81605        60.26313        -1.23990
O         49.67557        48.15501        -2.11270
O         50.05026        53.44303         1.42912
O         44.20854        55.47890         1.99240
O         38.77754        60.34928         2.20715
O         38.77682        43.82357        -2.28119
H         38.72698        44.80118        -2.45171
O         42.28743        53.76098         1.85189
H         42.75286        54.35030         2.49232
O         57.44756        50.07635        -0.44232
H         57.23253        50.22056        -1.38644
O         39.09210        56.87158        -1.00393
H         39.89715        56.40901        -1.35593
O         42.74629        53.31536        -1.76625
H         42.81811        52.48450        -2.28352
O         45.54416        37.80525        -1.40168
H         46.37350        37.34182        -1.64367
O         37.10892        47.90072         2.22463
H         37.96884        47.42863         2.25597
O         45.94912        59.25623        -1.75857
H         46.70955        59.63025        -2.25303
O         58.65724        56.53300         2.08710
H         57.90411        55.95680         2.34186
O         50.51003        44.70055         1.83334
H         50.13999        43.98108         2.40826
O         36.48771        54.72899         2.52138
H         37.25544        55.20453         2.90445
O         41.56003        55.54227        -1.33246
H         41.78058        54.74594        -1.88028
O         48.92798        42.71914         2.65359
H         48.04888        43.09606         2.89786
O         32.37840        54.32373         2.69242
H         32.32388        55.28231         2.89702
O         50.95124        43.44637        -1.58745
H         51.69730        42.97928        -2.01761
O         41.72180        41.72614        -2.36105
H         40.93011        41.96778        -2.88999
O         40.17882        43.92780         1.12882
H         40.98242        44.32753         1.52420
O         41.36245        44.16094        -2.32633
H         42.13254        43.77108        -2.79445
O         45.00111        48.64266        -2.53261
H         45.75017        49.21065        -2.84061
O         38.68611        46.55993        -2.09011
H         39.48326        47.00138        -2.45597
H         29.55081        56.44845        -0.42072
H         28.35914        58.56946        -0.89536
H         30.60735        61.89333        -2.29196
H         28.52624        60.68667        -1.94565
H         31.88095        52.16274         1.30905
H         30.67324        54.31631         0.18769
H         33.16835        62.08805        -1.73866
H         34.64239        48.02467         1.79767
H         33.00190        50.23076         1.53300
H         35.64204        62.09393        -1.06090
H         36.78583        43.74793         0.06843
H         35.70127        45.81783         0.79647
H         37.80661        62.27371        -0.37091
H         39.18504        39.47601        -0.71276
H         37.98231        41.59148        -0.48677
H         40.33666        62.41956         0.14973
H         42.05373        35.31599        -1.28449
H         40.59111        37.40689        -1.09366
H         42.69374        62.47097         0.35487
H         45.38373        32.02815        -0.22386
H         43.31734        33.21294        -0.93920
H         45.17501        62.54596         0.31148
H         47.32926        33.28798         0.67805
H         48.45270        35.45069         1.13389
H         47.62578        62.52688         0.08872
H         49.58698        37.47422         1.44029
H         50.93734        39.54169         0.89882
H         50.05490        62.52918        -0.22824
H         52.11295        41.52184         0.24238
H         53.49223        43.71133         0.09598
H         52.55098        62.56148        -0.21303
H         54.77400        45.84878         0.14912
H         56.03037        48.00903         0.21112
H         55.01934        62.56192        -0.02762
H         56.68926        50.46837         1.42234
H         58.48561        52.31905         0.21859
H         57.29883        62.52348         0.75132
H         59.70165        54.45284         0.37385
H         60.97834        56.74794         0.66630
H         60.12046        62.54638         0.86518
H         62.17919        58.91147         0.01757
H         62.11681        61.24238         0.40971
