         276
 CSIRO Nanostructure Databank - Neutral Graphene Oxide Data Set
C        -11.14417         0.55745        -0.35691
C        -10.03007         1.33849         0.25440
C         -8.74694         0.57365         0.40221
C         -7.48843         1.36099         0.60427
C         -6.20074         0.65141         0.85964
C         -4.99531         1.36786         0.26830
C         -3.67987         0.64097         0.41465
C         -2.56664         1.40639        -0.26143
C         -1.32908         0.66769        -0.62037
C          0.00326         1.31938        -0.92886
C          1.18834         0.69264        -0.22696
C          2.49606         1.43478        -0.37691
C          3.78372         0.69219        -0.15299
C          5.10767         1.31582        -0.56929
C          6.31746         0.64109         0.00077
C          7.41351         1.43655         0.73620
C          8.73799         0.75405         0.45779
C          9.69420         1.48365        -0.47419
C         10.99248         0.69989        -0.53253
C         -9.94767         2.83588         0.29076
C         -8.76681         3.52461         0.23662
C         -7.47747         2.76360        -0.08898
C         -6.22873         3.57131         0.34522
C         -4.94987         2.85806         0.64875
C         -3.59873         3.59205         0.78117
C         -2.38442         2.78678         0.30148
C         -1.08258         3.49480         0.08821
C         -0.05030         2.85895        -0.81860
C          1.22779         3.58281        -1.08456
C          2.49279         2.74413        -1.13022
C          3.80404         3.43965        -1.28980
C          5.18235         2.82691        -0.94039
C          6.16269         3.63759        -0.06521
C          7.38812         2.94925         0.45655
C          8.67445         3.67109         0.25023
C          9.76876         2.96883        -0.13713
C         -8.68955         4.99379         0.24592
C         -7.53704         5.72320         0.13820
C         -6.23080         5.02423        -0.00795
C         -4.92009         5.75104         0.05070
C         -3.61344         4.98410         0.13098
C         -2.31490         5.72185         0.13904
C         -1.00780         4.98914         0.51927
C          0.14433         5.76791        -0.11753
C          1.28731         5.07810        -0.79814
C          2.60867         5.76600        -1.00288
C          3.79612         4.93782        -1.43620
C          5.09319         5.63270        -1.16844
C          6.25573         5.10312        -0.41160
C          7.47387         5.94871        -0.15171
C          8.67885         5.19268         0.45254
C         -7.50418         7.21723        -0.18872
C         -6.23076         7.93912         0.29842
C         -4.94363         7.19518         0.45631
C         -3.62890         7.92776         0.64067
C         -2.33680         7.19505         0.46508
C         -1.03066         7.95889         0.44633
C          0.25393         7.20790         0.31832
C          1.58814         7.90381         0.16534
C          2.78494         7.10218        -0.30287
C          4.06849         7.87285        -0.29506
C          5.16681         7.87567        -1.08134
C          6.51901         8.42553        -0.71524
C          7.47480         7.31759        -0.12373
C         -6.06924         9.39932         0.03907
C         -4.89932        10.05410         0.14871
C         -3.59564         9.46961         0.66922
C         -2.37980        10.03412        -0.13913
C         -1.01741         9.41916         0.18603
C          0.16764        10.07704         0.09857
C          1.55378         9.43777        -0.11992
C          2.73796        10.37520         0.22832
C          4.00729         9.95415         0.49063
C          5.36519        10.52281         0.37738
C          6.44477         9.77229         0.02280
C        -11.10265        -0.79935        -0.48182
C         -9.89430        -1.59875        -0.25120
C         -8.67107        -0.74098        -0.34390
C         -7.44460        -1.57843         1.31964
C         -6.15805        -0.84380         1.10859
C         -4.85364        -1.64162         1.17538
C         -3.68219        -0.85294         0.52581
C         -2.58513        -1.57572        -0.17797
C         -1.33798        -0.83936        -0.53419
C         -0.11433        -1.62129        -0.06540
C          1.17656        -0.80177        -0.06997
C          2.45769        -1.58110        -0.13133
C          3.74453        -0.82394         0.03091
C          5.05898        -1.50460        -0.26640
C          6.21168        -0.81497         0.41810
C          7.48641        -1.51716         0.81895
C          8.75516        -0.73771         0.52910
C          9.68606        -1.43172        -0.47067
C         10.98351        -0.64602        -0.54479
C         -9.87898        -2.96909        -0.14526
C         -8.75384        -3.86578         0.17672
C         -7.76522        -3.62399         1.33241
C         -6.29135        -4.02859         1.00024
C         -5.03291        -3.18508         0.76174
C         -3.91248        -3.81228        -0.05181
C         -2.62430        -3.08466        -0.25199
C         -1.31639        -3.88136        -0.26814
C         -0.11059        -3.01090        -0.69955
C          1.17264        -3.67004        -1.09672
C          2.49354        -2.84635        -1.04268
C          3.71617        -3.64853        -0.60118
C          5.05742        -2.94200        -0.72501
C          6.29502        -3.77399        -0.80877
C          7.62129        -3.02740         0.92318
C          8.79837        -3.67055         0.28274
C          9.80193        -2.92810        -0.24542
C         -8.71011        -5.15122        -0.31091
C         -7.64035        -6.08586         0.02827
C         -6.35756        -5.57431         0.67498
C         -5.21587        -6.04361        -0.23273
C         -3.96704        -5.27643        -0.43908
C         -2.71992        -5.95530        -0.99590
C         -1.42611        -5.18964        -1.03812
C         -0.12439        -5.96040        -1.13492
C          1.19988        -5.18755        -1.18937
C          2.45908        -5.91417        -0.82324
C          3.68105        -5.12225        -0.42775
C          4.96223        -5.90288        -0.39651
C          6.30756        -5.23101        -0.45124
C          7.47207        -5.89698         0.20762
C          8.83667        -5.19789         0.32896
C         -7.63120        -7.43665        -0.18315
C         -6.36996        -8.21833         0.18815
C         -5.18301        -7.53512        -0.51791
C         -3.79614        -8.11216        -0.17507
C         -2.68272        -7.52027        -1.05561
C         -1.45668        -8.01964        -0.24236
C         -0.14420        -7.41053        -0.72800
C          1.18782        -8.15904        -0.48806
C          2.31651        -7.21834        -0.07509
C          3.50593        -7.78397         0.63170
C          4.85332        -7.29716         0.15984
C          6.11218        -7.99219         0.58972
C          7.34795        -7.17292         0.66872
C         -6.30107        -9.69398        -0.13445
C         -5.09763       -10.30902        -0.26646
C         -3.81460        -9.62255        -0.21962
C         -2.60865       -10.27142        -0.16463
C         -1.36525        -9.53047        -0.09821
C         -0.18001       -10.12587         0.25872
C          1.07506        -9.40037         0.38384
C          2.17762        -9.92388         1.00401
C          3.41244        -9.12194         1.38658
C          4.73632        -9.85800         1.47969
C          5.94031        -9.27635         1.32812
O         -6.93885         1.30795         1.93114
O         -6.95366        -1.09807         2.38389
O         -2.94824         7.36614         1.80322
O          0.21239         5.73776        -1.56191
O          3.12502        -1.50212         1.16050
O          6.06598         0.63833        -1.43778
O         -0.25667         7.55235         1.62952
O         -6.23666        -6.14175         1.94991
O         -3.59655        -3.22757        -1.34593
O          5.28286         6.78693        -1.98177
O         -5.82246         3.33082         1.72148
O          6.89727        -3.66112         1.70586
O         -3.18271         0.04188         1.61310
O          3.20577         1.50822         0.90019
O         -5.07455        -5.30680        -1.45813
O          2.99939         5.63056        -2.41439
O         -2.25010        -5.29159        -2.21251
O          6.36114         3.50559         1.34986
O         -1.84194        -7.50829         1.08771
O          3.19795         2.71318        -2.40572
O          0.22699         3.38868        -2.13274
O         -2.29137         1.16058        -1.64220
O         -3.34635        -7.67461         1.15890
O         -5.81208         7.46596         1.61499
O          3.52906        -4.23047         0.71944
O         -2.85380         5.20217        -1.10294
O          5.19370        -1.83878        -1.67678
O          9.34763         0.06278         1.59020
O          2.09441        -5.74446        -2.20491
O         -7.43768         2.54356        -1.45986
O          2.39081         7.15311         1.11729
O         -5.28696        -3.89011         2.01081
O          5.53173        -8.20057        -0.75551
O          1.06496         0.12139         1.07965
O          1.60781        -8.76590        -1.68164
O          2.60467        -6.84506         1.31798
O         -8.16665        -3.76870         2.48606
O         -0.23010        -7.00444        -2.13015
O          6.51221        -1.05589         1.80051
O         -5.55589         5.44446        -1.24280
O         -2.19652        -1.28585        -1.59207
O          0.26072        -3.07624        -2.08982
O          5.72796        -5.88483        -1.64001
O          4.14798         8.62282         0.88254
O         -1.29934         2.68654         1.28117
O         -9.64927         0.66359         1.52743
O          5.13878         5.79372         0.27599
O         -7.80112        -0.93736        -1.19130
O          9.07187         1.39537        -1.80068
H          9.60077         1.93352        -2.42683
O          3.16479        -8.80758         2.79242
H          2.56420        -8.02535         2.80959
O          5.87896         2.92770        -2.20908
H          5.33818         2.46513        -2.88791
O          2.73435        -2.35919        -2.36605
H          1.88440        -2.38369        -2.86590
O         -5.12684         1.31204        -1.17112
H         -5.98990         1.73201        -1.48455
O          9.90146         5.75433        -0.01504
H          9.83604         5.90509        -0.97952
O         -4.47970        -1.68495         2.55557
H         -5.04924        -2.34647         3.01342
O         -1.06510        -4.35627         1.07322
H         -0.88382        -3.57998         1.65847
O         -2.73153        -7.98906        -2.37990
H         -1.99351        -7.55607        -2.87158
O         -2.64577         9.72406        -1.51456
H         -1.90143        10.04260        -2.06508
O         -5.41094        -7.76282        -1.91011
H         -5.06405        -6.98100        -2.40311
O          8.99709        -1.33309        -1.75670
H          8.98712        -0.37308        -2.02081
O          0.28820         0.97045        -2.30031
H         -0.46740         1.28006        -2.85011
O          1.62630         9.40192        -1.59529
H          1.59791        10.32409        -1.92832
O         -0.36829        -1.88623         1.34558
H         -0.09792        -1.08881         1.86282
O         -6.14294        -8.12810         1.61662
H         -6.99161        -8.23448         2.09787
O          9.70000        -5.69421        -0.69408
H          9.23818        -5.63506        -1.55566
O          7.12650         1.32661         2.13235
H          7.79518         0.73294         2.54580
O          7.13481        -3.42132        -1.77475
H          6.85178        -2.54549        -2.15141
O         -7.60081         7.34588        -1.61233
H         -6.94797         6.72311        -2.00930
O         -3.44191         9.90042         2.02938
H         -3.14888         9.11780         2.55355
O          7.19282         8.77226        -1.95823
H          6.90724         8.11256        -2.62779
O         -0.80188         5.04103         1.92122
H         -1.50592         4.50520         2.35940
O         -3.38097         3.83590         2.18643
H         -4.26169         3.88370         2.62847
H         11.93047        -1.20213        -0.62144
H         11.94507         1.24812        -0.59811
H         10.70855         3.50927        -0.33574
H          8.64831         5.35755         1.56443
H          8.43151         7.76060         0.21086
H          7.41698        10.29426         0.03063
H          5.53769        11.57135         0.67274
H          2.58196        11.41392        -0.10762
H          0.14048        11.16495        -0.09264
H         -2.33725        11.15020        -0.00025
H         -4.87848        11.13076        -0.08322
H         -6.95760         9.94202        -0.31957
H         -8.39495         7.73089         0.25476
H         -9.64925         5.53551         0.29582
H        -10.89685         3.38747         0.39708
H        -12.07848         1.08854        -0.59415
H        -12.01286        -1.33383        -0.79775
H        -10.84669        -3.48508        -0.28966
H         -9.48261        -5.49322        -1.01976
H         -8.48383        -7.95629        -0.64698
H         -7.23019       -10.28321        -0.17088
H         -5.07040       -11.39867        -0.42642
H         -2.56593       -11.37137        -0.14084
H         -0.17634       -11.20183         0.49748
H          2.06412       -10.88209         1.53827
H          4.68624       -10.85708         1.93938
H          6.85384        -9.83869         1.57743
H          8.21218        -7.62835         1.17845
H          9.28971        -5.50247         1.30950
H         10.66902        -3.44838        -0.68548
