         294
 CSIRO Nanostructure Databank - Neutral Graphene Oxide Data Set
C          1.13392         2.06845        -0.96977
C          1.11740         3.46789        -1.03431
C          2.33627         1.37561        -0.93885
C          2.31820         4.19955        -1.09539
C          1.08145         6.50467        -1.01945
C          1.11938         7.84916        -0.95141
C          2.30313         5.69350        -1.22736
C          2.39154         8.67220        -1.06971
C          1.17328        10.63708         0.04610
C          1.15976        11.98405         0.46750
C          2.34503         9.99523        -0.31271
C          2.35512        12.70259         0.72197
C          1.12124        14.95335         0.94020
C          1.12394        16.29739         0.97951
C          2.37311        14.13953         1.23236
C          2.36484        17.07830         1.21098
C          2.41177        18.52676         0.98819
C          3.56981         2.07843        -0.96477
C          3.54450         3.50131        -1.06784
C          4.80439         1.36363        -0.85565
C          4.85487         4.24955        -1.16528
C          3.60554         6.43834        -0.94127
C          3.57731         7.85574        -0.62567
C          4.75913         5.59425        -0.40708
C          4.77944         8.42489         0.06042
C          3.63200        10.78216        -0.24191
C          3.57280        12.05607         0.57419
C          4.84348         9.92964         0.07608
C          4.83053        12.70067         1.14776
C          3.58231        14.87741         0.57552
C          3.67211        16.31979         1.05490
C          4.91326        14.17781         0.76943
C          4.86354        17.07291         0.65695
C          3.59848        19.16381         0.78837
C          4.83815        18.44097         0.60166
C          6.03331         2.03621        -0.64186
C          6.02767         3.43755        -0.67807
C          7.30248         1.32323        -0.49002
C          7.20666         4.17037        -0.23975
C          6.05292         6.37805        -0.48369
C          6.06184         7.72370        -0.38146
C          7.31160         5.60657        -0.64371
C          7.32093         8.49724        -0.57367
C          6.02667        10.55682         0.28315
C          6.10626        11.94872         0.77979
C          7.30575         9.90251        -0.06937
C          7.39915        12.69005         0.71875
C          6.07865        14.85337         0.60965
C          6.06438        16.30386         0.13201
C          7.40255        14.20074         1.00506
C          7.33324        17.08579         0.43731
C          6.05211        19.16472         0.06020
C          7.33407        18.43855         0.39429
C          8.47911         1.95780        -0.20557
C          8.45150         3.39538         0.12381
C          9.85279         1.33535        -0.43245
C          9.74025         4.14613         0.25605
C          8.64310         6.27912        -0.72608
C          8.71079         7.80608        -0.73576
C          9.95098         5.48447        -0.47139
C          9.66234         8.35546         0.34340
C          8.59837        10.58773         0.15691
C          8.59856        12.09787        -0.01674
C          9.74760         9.86895         0.21138
C          9.84993        12.73227         0.64883
C          8.65533        14.89733         0.50440
C          8.65413        16.39546         0.69792
C          9.85713        14.21496         0.33200
C          9.72826        17.07596        -0.13404
C          8.61743        19.24119         0.59321
C          9.75980        18.60961        -0.24454
C         10.95434         1.84750         0.53690
C         10.98591         3.38516         0.52915
C         12.32096         1.26773         0.19450
C         12.32195         4.08289         0.28224
C         11.04259         6.26434         0.25051
C         11.00706         7.66946         0.31363
C         12.22897         5.57700         0.58023
C         12.22742         8.38399         0.31684
C         10.97183        10.57400        -0.33703
C         11.18876        11.96095         0.36882
C         12.30250         9.72875        -0.39365
C         12.27034        12.71686        -0.42783
C         11.07959        14.88527        -0.00459
C         10.98477        16.31312        -0.35020
C         12.32837        14.21337        -0.16972
C         12.22058        17.07105        -0.71486
C         11.14832        19.16202         0.04887
C         12.29476        18.50703        -0.30742
C         13.49695         1.92180         0.48234
C         13.36646         3.30421         1.10216
C         14.78927         1.33875         0.27015
C         14.67589         4.08979         1.21193
C         13.38303         6.31277         0.91257
C         13.42472         7.69689         0.57612
C         14.63035         5.58243         1.26659
C         14.75955         8.21989         0.05911
C         13.59221        10.48540         0.01377
C         13.60414        11.97908        -0.31428
C         14.82940         9.69056        -0.40271
C         14.76063        12.65222        -0.52225
C         13.51234        14.87460        -0.51709
C         13.49641        16.30239        -0.90692
C         14.84088        14.15425        -0.35427
C         14.79079        17.09994        -1.13959
C         13.61728        19.09980        -0.14840
C         14.79513        18.46639        -0.46970
C         15.98728         2.06492         0.35496
C         15.90592         3.57401         0.48273
C         17.24444         1.50782         0.06023
C         17.20991         4.21079         0.94831
C         15.91436         6.37048         1.32375
C         15.91636         7.79526         0.92720
C         17.23023         5.65826         1.37599
C         17.19298         8.59571         0.97392
C         16.10565        10.48386        -0.42945
C         16.05573        11.96042        -0.90570
C         17.22769        10.01664         0.46754
C         17.32921        12.76286        -0.67488
C         15.99283        14.84125        -1.16783
C         16.09017        16.34034        -0.75119
C         17.32207        14.08827        -0.97976
C         17.28934        17.14257        -1.34410
C         16.08865        19.10219        -0.32339
C         17.28533        18.50002        -0.65746
C         18.43038         2.30646        -0.05258
C         18.43257         3.63327         0.36762
C         19.66238         1.74651        -0.59170
C         19.56093         4.58103         0.06222
C         18.47825         6.47437         1.23541
C         18.46170         7.83785         1.17101
C         19.77268         5.66183         1.14711
C         19.70954         8.65253         1.31652
C         18.45500        10.93505         0.66544
C         18.59635        11.99667        -0.41041
C         19.72268        10.13547         1.03616
C         19.90585        12.70109        -0.48996
C         18.59618        14.83621        -1.18942
C         18.59706        16.34006        -1.21557
C         19.92456        14.10970        -1.01282
C         19.81048        17.02422        -0.58997
C         18.54905        19.18619        -0.59761
C         19.75562        18.53174        -0.73015
C         20.79323         2.49669        -0.71947
C         20.84305         3.88933        -0.33622
C         21.97601         4.65216        -0.41350
C         20.96799         6.53696         0.78923
C         21.01763         7.86843         1.51087
C         21.99110         6.02128         0.05984
C         22.25131         8.70142         1.24495
C         21.04681        10.86433         0.93104
C         21.10428        12.23257         0.29670
C         22.26593        10.03302         1.07525
C         22.38784        12.93700         0.01220
C         21.20180        14.89187        -0.96357
C         21.13507        16.38900        -0.97116
C         22.41617        14.20180        -0.44263
C         22.23920        17.16380        -1.14986
C         20.99259        19.25398        -0.86630
C         22.17387        18.60293        -1.08227
O          3.15475        16.62613         2.38374
O         19.56838         9.62483         2.41114
O          7.06398        11.93671         1.92026
O          3.13767         6.17244        -2.32920
O         14.70680         4.73871         2.50512
O          9.92712        16.46098        -1.42469
O         18.74794        15.59560        -2.44618
O         16.82974         9.71298         1.85048
O         10.26631         4.04621         1.61542
O         20.76066        14.24206        -2.20978
O         12.59086        16.62860        -2.05400
O         10.48245         5.13370        -1.73871
O         19.48784        11.71000        -1.51447
O         15.65160         9.69687        -1.59421
O         15.65591         7.42576         2.31450
O          7.97261         5.80309        -1.93875
O         17.32277         4.57582         2.35483
O         20.96612        12.08489         1.74983
O          7.19160         9.57375        -1.54189
O          7.51890         3.83102         1.16082
O          8.96300        19.31729         1.97629
H          9.03939        18.39259         2.32144
O         16.32470        16.49077         0.65863
H         15.86685        15.78484         1.17107
O         11.77581        11.73304         1.65788
H         11.07417        11.83784         2.34693
O         11.92814        12.71361        -1.83349
H         12.66322        13.13357        -2.32852
O          9.03287         8.03073         1.60847
H          9.68127         8.17496         2.32890
O         15.16818        14.23318         1.08159
H         14.56511        13.63077         1.56823
O          7.46035        14.34995         2.47347
H          6.80500        13.69906         2.83565
O         12.55145         9.35405        -1.77269
H         11.77244         8.85874        -2.10650
O          5.93728        19.17174        -1.38375
H          5.12939        19.67130        -1.62309
O          2.51600        14.06471         2.65960
H          2.67987        14.98311         2.98790
O          9.28577         8.19847        -1.99610
H          8.92497         7.58712        -2.67837
O         17.18257        17.46101        -2.73524
H         17.53699        16.69239        -3.24195
O         10.62743         1.38161         1.85783
H         11.18124         1.90751         2.48289
O          4.65431         8.03460         1.50485
H          3.85273         8.47673         1.85993
O         13.84535        10.33535         1.43821
H         13.14158        10.79381         1.95402
O          4.73676        12.67427         2.59841
H          4.83052        11.74527         2.89535
O          5.89926        16.24846        -1.31921
H          6.00355        17.17458        -1.65309
O         15.98287        11.98004        -2.35729
H         15.58809        11.12317        -2.64873
O         18.16489        11.76312         1.81273
H         18.06926        11.15319         2.58122
O          3.31147        14.93401        -0.84589
H          4.12969        15.25944        -1.29542
O          9.62113        12.64071         2.08329
H          8.95802        13.31667         2.37554
O         14.84399        17.35621        -2.56175
H         13.91441        17.51199        -2.85741
O          4.46919         5.28791         0.97100
H          4.59157         6.12163         1.48978
O         12.72748         3.96431        -1.09870
H         12.00255         4.44593        -1.62124
O         10.24713         1.66399        -1.77512
H         10.34469         2.64001        -1.85754
O          3.86603        11.24498        -1.62589
H          3.54439        10.52871        -2.23304
O         15.62676        14.77892        -2.55306
H         15.43446        15.69376        -2.88390
O         14.94153         7.42097        -1.15130
H         14.34384         7.79041        -1.83919
O         12.84187         3.08771         2.42833
H         13.25373         3.77590         3.00906
O          2.56246         8.99806        -2.50939
H          2.78738         8.14383        -2.95196
O         10.56156        10.79332        -1.71298
H         10.06992         9.98717        -2.01103
O          5.13605         4.57271        -2.55346
H          5.20560         3.73699        -3.05941
O         21.06364         7.53530         2.93181
H         20.73100         8.33260         3.40803
O         15.71934         4.05551        -0.88669
H         14.77020         3.93038        -1.14263
O          9.01885        16.59709         2.10635
H          8.42740        16.00963         2.63784
O         19.65644        16.74077         0.84348
H         20.28240        17.31379         1.33433
O         20.05798         5.01637         2.39333
H         20.35521         5.71926         3.01887
O         19.09049         5.32662        -1.10892
H         18.89333         4.68550        -1.82456
O          9.46562        18.96117        -1.61399
H          9.77906        18.21078        -2.17392
O          8.50567        12.47489        -1.38863
H          9.27339        12.05887        -1.86100
H          0.18322         1.51866        -0.93872
H          0.15052         3.98894        -1.05495
H          2.34322         0.27849        -0.87111
H          0.11410         5.99020        -0.91365
H          0.16546         8.38650        -0.84980
H          0.20230        10.13388        -0.06587
H          0.18439        12.46449         0.62182
H          0.16714        14.43364         0.76682
H          0.19493        16.86044         0.79878
H          1.46673        19.08897         0.95615
H          4.77589         0.26408        -0.83364
H          3.61541        20.25560         0.64856
H          7.30380         0.24564        -0.71674
H          6.08347        20.22552         0.43132
H          9.78235         0.22213        -0.36994
H          8.45523        20.28715         0.23449
H         12.35504         0.24705        -0.22046
H         11.21620        20.20090         0.40758
H         14.83657         0.27374        -0.01097
H         13.65421        20.12354         0.25707
H         17.31356         0.43192        -0.16494
H         16.10609        20.11967         0.10174
H         19.66585         0.68728        -0.88641
H         18.54688        20.28551        -0.50951
H         21.71528         2.03482        -1.10388
H         22.91320         4.22032        -0.79483
H         22.89583         6.61851        -0.12944
H         23.21403         8.17904         1.35560
H         23.23587        10.54891         1.01194
H         23.32031        12.46816         0.35955
H         23.38105        14.72549        -0.52457
H         23.21396        16.70071        -1.36265
H         20.95953        20.35366        -0.85312
H         23.10114        19.17495        -1.22371
