         349
 CSIRO Nanostructure Databank - Neutral Graphene Oxide Data Set
C          1.51721         2.25916        -0.63029
C          1.48574         3.61912        -0.77017
C          2.74219         1.54002        -0.56636
C          2.73379         4.39458        -0.86227
C          1.49034         6.54524        -1.76584
C          1.51274         7.86306        -2.02179
C          2.72748         5.81957        -1.36720
C          2.77419         8.66295        -2.01345
C          1.53848        10.67437        -1.11731
C          1.48062        11.90732        -0.56018
C          2.79079        10.03219        -1.45066
C          2.69873        12.66041        -0.21711
C          1.39364        14.92856        -0.35575
C          1.38813        16.28712        -0.38987
C          2.65024        14.18361        -0.16171
C          2.60496        17.04844        -0.26780
C          2.58799        18.45492        -0.16607
C          3.97812         2.18286        -0.70278
C          4.01312         3.62946        -0.93058
C          5.19485         1.46274        -0.60473
C          5.20191         4.25607        -1.16568
C          4.01794         6.40428        -1.88211
C          4.08021         7.90106        -1.98718
C          5.28340         5.67373        -1.61549
C          5.31824         8.59291        -1.57748
C          4.00220        10.65940        -1.19774
C          4.04753        11.94961        -0.38346
C          5.25599         9.96551        -1.36528
C          5.18171        12.87222        -0.77198
C          3.90502        14.94216        -0.30874
C          3.86028        16.35586        -0.26776
C          5.15333        14.26296        -0.51423
C          5.07326        17.10882        -0.18913
C          3.76583        19.17666        -0.02642
C          5.02670        18.52284        -0.02393
C          6.44902         2.07447        -0.79315
C          6.47461         3.47999        -1.35943
C          7.64500         1.38160        -0.59268
C          7.66179         4.27960        -0.85511
C          6.55131         6.43965        -1.43874
C          6.56451         7.86538        -1.44742
C          7.72630         5.73658        -1.14718
C          7.80355         8.56651        -1.23487
C          6.52344        10.72739        -1.33431
C          6.46129        12.21678        -1.10337
C          7.80351        10.00991        -1.14050
C          7.71783        12.88641        -0.74127
C          6.35624        15.04291        -0.52019
C          6.33053        16.42950        -0.24567
C          7.69640        14.40270        -0.78073
C          7.53731        17.19309        -0.00627
C          6.24284        19.25057         0.15010
C          7.46921        18.60436         0.18567
C          8.92942         2.02179        -0.69013
C          8.92303         3.50788        -0.62114
C         10.11646         1.33632        -0.73785
C         10.18936         4.23877        -0.75364
C          8.97822         6.41738        -1.05623
C          9.03221         7.85523        -1.14437
C         10.16340         5.63753        -0.90940
C         10.31378         8.57470        -1.09613
C          8.97718        10.72642        -0.88391
C          8.89243        12.18179        -0.68744
C         10.27666        10.04417        -0.89690
C         10.16763        12.98102        -0.53178
C          8.74200        15.04315         0.10134
C          8.76700        16.51071         0.21315
C         10.02890        14.29240         0.22778
C          9.95229        17.17683         0.59008
C          8.73168        19.41684         0.39901
C          9.97724        18.60998         0.71821
C         11.42610         2.02891        -1.02121
C         11.39707         3.49673        -0.69164
C         12.66328         1.34190        -0.49668
C         12.61631         4.16322        -0.42129
C         11.48151         6.28924        -1.16354
C         11.48359         7.79382        -1.09555
C         12.53430         5.63939        -0.28545
C         12.83644         8.30980        -1.03092
C         11.40808        10.82867        -0.59227
C         11.22863        12.13872         0.15412
C         12.76551        10.43460        -0.72765
C         12.50676        12.90796         0.37548
C         11.24238        15.07391         0.47403
C         11.19654        16.44588         0.72924
C         12.55405        14.40179         0.22101
C         12.41785        17.15965         1.02268
C         11.14368        19.26531         1.05528
C         12.39667        18.56946         1.22894
C         13.83523         2.03751        -0.23102
C         13.81087         3.48768        -0.19355
C         15.08842         1.36122         0.02257
C         15.10967         4.25532        -0.13896
C         13.72820         6.38963         0.14533
C         13.85837         7.80030        -0.26046
C         14.99980         5.67556         0.36936
C         14.81700         8.61348         0.61987
C         13.80925        10.87057         0.07191
C         13.69642        12.22231         0.55815
C         15.10841        10.07362         0.16136
C         14.89138        12.90516         0.96994
C         13.69488        15.05470         0.93947
C         13.65444        16.44678         1.16704
C         14.86445        14.31144         1.19545
C         14.86824        17.13727         1.48460
C         13.59155        19.24879         1.54312
C         14.85099        18.58013         1.63348
C         16.27648         2.03265         0.30741
C         16.28438         3.48935         0.42054
C         17.49029         1.34175         0.61288
C         17.37976         4.16271         0.87385
C         16.09471         6.37713         0.78328
C         16.08080         7.82991         0.98908
C         17.25173         5.58249         1.26965
C         17.12597         8.47456         1.59332
C         16.05509        10.74148         1.13137
C         16.04812        12.13655         1.28815
C         17.02067         9.94219         1.95993
C         17.21372        12.83256         1.78214
C         16.04662        14.98780         1.62213
C         16.05686        16.39771         1.67908
C         17.24038        14.23957         1.88839
C         17.36720        17.07034         1.70191
C         16.04806        19.26764         1.89081
C         17.34978        18.62238         1.73959
C         18.66641         2.01008         0.96575
C         18.74480         3.52331         0.96882
C         19.86677         1.33280         1.23431
C         19.63831         4.00032         2.14191
C         18.35160         6.25251         2.00814
C         18.31005         7.74906         2.14025
C         19.63147         5.51958         2.32837
C         19.56458         8.47572         2.50292
C         18.34245        10.66040         2.03815
C         18.40368        12.04810         1.98152
C         19.61229         9.98771         2.50775
C         19.63081        12.73358         2.30717
C         18.44279        14.92543         2.29949
C         18.58198        16.34748         2.13839
C         19.52233        14.06989         2.67523
C         19.80906        17.08063         2.12646
C         18.62942        19.25711         2.07544
C         19.79643        18.53220         2.04934
C         21.06838         2.01872         1.56085
C         21.04623         3.42713         1.95352
C         22.28418         1.33097         1.42126
C         22.22231         4.10331         2.21570
C         20.88970         6.28734         2.55480
C         20.93516         7.80753         2.40639
C         22.26264         5.61323         2.59465
C         21.53539         8.17987         0.93346
C         20.71756        10.61147         1.67445
C         20.93147        12.03730         2.11772
C         21.69658         9.83093         0.87140
C         22.20058        12.75912         1.66120
C         21.34030        15.08776         2.31536
C         21.10452        16.44262         1.98362
C         22.26845        14.25385         1.63802
C         22.20898        17.12746         1.40312
C         21.12168        19.28284         2.09384
C         22.25546        18.55668         1.39189
C         23.51656         2.00791         1.52462
C         23.48516         3.39794         1.98892
C         24.74113         1.34816         1.28297
C         24.73341         3.97306         2.10966
C         23.24495         6.40939         1.73183
C         22.88758         7.44882         0.84378
C         24.59854         6.04748         1.78289
C         23.84072         7.84222        -0.10933
C         22.90064        10.62307         0.40718
C         23.10427        12.01521         0.72039
C         23.73022        10.05637        -0.55724
C         24.13372        12.72946         0.06680
C         23.29063        14.91991         0.94929
C         23.33267        16.36383         0.95894
C         24.30544        14.16906         0.24190
C         24.48717        17.03470         0.53121
C         23.39099        19.20329         0.94494
C         24.55939        18.46601         0.51575
C         25.98278         2.05884         1.19824
C         25.80657         3.55540         1.14342
C         27.21190         1.49466         0.96886
C         27.03277         4.45128         1.08724
C         25.55841         6.40647         0.82333
C         25.17473         7.36143        -0.14206
C         26.87498         5.77646         0.72339
C         26.20528         7.88005        -1.01148
C         24.91939        10.68179        -1.02147
C         25.11685        12.05504        -0.72416
C         25.95084         9.96833        -1.68753
C         26.26472        12.70973        -1.28023
C         25.39789        14.82820        -0.27524
C         25.64373        16.22121         0.13629
C         26.30295        14.22263        -1.31181
C         26.95582        16.86746        -0.14858
C         25.73442        19.09539         0.09931
C         27.06872        18.38904        -0.02521
C         28.44616         2.30986         0.98108
C         28.36827         3.82003         1.07898
C         29.66018         1.72190         0.39426
C         29.57853         4.69430         0.71518
C         27.94714         6.53134         0.05038
C         27.57178         7.69310        -0.78789
C         29.21666         6.00384         0.02948
C         28.58079         8.46815        -1.51112
C         27.19752        10.53394        -1.95055
C         27.27407        11.96811        -1.88687
C         28.37771         9.69858        -2.15076
C         28.35310        12.72022        -2.63350
C         27.70670        14.82062        -1.33132
C         27.95617        16.09983        -0.95086
C         28.79471        13.96321        -1.87851
C         29.27781        16.80755        -1.20686
C         27.95454        18.94987        -1.10525
C         28.98529        18.24648        -1.64163
C         30.66593         2.51317        -0.10344
C         30.62135         3.93062        -0.09060
C         31.66724         4.67501        -0.69354
C         30.33585         6.75803        -0.58049
C         29.99993         8.00168        -1.39448
C         31.58582         6.03495        -0.85602
C         30.95812         8.46428        -2.42739
C         29.46885        10.33654        -2.94305
C         29.48903        11.84265        -3.14695
C         30.71521         9.57171        -3.14073
C         30.73797        12.55121        -3.51976
C         30.11997        14.58642        -2.23689
C         30.17039        16.06981        -2.20094
C         30.99985        13.81978        -3.15788
C         30.93755        16.76103        -3.08852
C         29.88233        18.89424        -2.58155
C         30.84761        18.19434        -3.23108
O         23.44215         8.78680        -1.06552
O          9.04635        14.30315         1.31798
O         29.92112        13.85446        -0.96992
O         28.64815         3.02242         2.28998
O         17.51283        17.85911         0.48260
O         20.60288        14.60368         3.39357
O          2.79339         5.55033         0.07461
O          6.54164        11.67114        -2.49405
O         20.50450        10.43256         0.24916
O         13.07206         9.50198        -1.72330
O          3.54398         8.45617        -3.24236
O          4.68669         5.74067        -3.00005
O         28.99262        10.95442        -4.20264
O         20.08306         5.85238         3.69806
O         26.75424        16.26313         1.17688
O         30.52616         8.11477        -0.02966
O         17.24525         5.65825         2.76849
O         25.76256         8.63846        -2.10561
O         18.64040         8.07338         3.56395
O         20.61934         7.74172         0.04474
O         24.97206         5.15014         2.80652
O          8.08254         3.97899         0.50801
O          2.61481        13.33030         1.08263
O         22.05262        12.20852         3.01635
O         12.62029         6.09387         1.10889
O         29.98572        16.86645         0.05687
H         30.79894        17.39517        -0.07821
O         25.15787         3.76177        -0.17651
H         25.64597         3.22566        -0.83726
O         19.09271         3.41504         3.33956
H         19.22384         4.05708         4.07204
O         16.51349         9.94641         3.34870
H         17.08639         9.31578         3.84933
O          4.43092        11.48065         0.95534
H          4.06439        12.14156         1.59062
O         30.24110         5.04790         1.96048
H         30.07077         4.30309         2.58396
O          6.65590         3.34195        -2.80615
H          6.06217         3.98079        -3.25874
O         15.46427         4.43233        -1.57137
H         15.47246         3.54024        -1.98033
O         11.88684         5.94422        -2.53561
H         11.22518         6.32802        -3.14925
O          8.11152        14.73197        -2.16146
H          7.45056        14.33038        -2.76747
O         10.60115        13.30992        -1.88133
H          9.85853        13.81716        -2.29868
O         12.86695        14.61911        -1.21666
H         12.14664        14.16590        -1.73126
O         10.69116        11.81339         1.46794
H         11.36415        11.29516         1.95736
O         27.72902        18.68179         1.24497
H         27.54354        17.91158         1.83341
O         22.70126         5.73291         3.97111
H         21.95194         5.42807         4.53160
O          8.51446        20.42411         1.39722
H          8.33320        19.97549         2.24831
O         27.71186        13.24181        -3.84634
H         27.65114        12.48063        -4.47019
O         21.79876         8.34925         3.40098
H         22.28438         7.61306         3.84726
O         19.83851        10.39365         3.87799
H         19.42209         9.71968         4.45888
O         14.05319         8.76395         1.84669
H         13.82802         7.86953         2.18467
O         21.51335        19.47684         3.46923
H         21.66327        18.59483         3.86842
O         19.45001         3.94911        -0.23156
H         18.91391         3.70514        -1.01472
O         25.70857        14.62946        -2.59305
H         26.25955        14.20575        -3.30170
O         15.75367        10.04164        -1.13127
H         15.06520         9.80635        -1.79523
O         11.57395         1.96981        -2.50715
H         12.25416         2.63135        -2.75851
H          0.57425         1.70126        -0.54040
H          0.52823         4.15729        -0.75899
H          2.71724         0.45224        -0.41140
H          0.53810         5.99537        -1.79891
H          0.57896         8.36991        -2.30889
H          0.60137        10.14259        -1.33022
H          0.50661        12.34819        -0.30809
H          0.44516        14.37571        -0.39086
H          0.43686        16.83162        -0.48360
H          1.62147        18.97946        -0.17630
H          5.15447         0.39866        -0.32476
H          3.73051        20.27043         0.07966
H          7.60717         0.30588        -0.35904
H          6.19994        20.33882         0.30272
H         10.10694         0.23501        -0.73865
H          8.93528        19.97496        -0.55920
H         12.68762         0.24134        -0.52262
H         11.12973        20.35999         1.16532
H         15.09336         0.26086        -0.00165
H         13.56445        20.34097         1.67635
H         17.48754         0.24059         0.59873
H         16.01548        20.32935         2.17878
H         19.91193         0.24198         1.08813
H         18.66375        20.35062         2.19772
H         22.27079         0.27558         1.10942
H         20.98637        20.30298         1.65656
H         24.74112         0.25567         1.15473
H         23.44647        20.30160         0.97682
H         27.31022         0.40620         0.83779
H         25.76881        20.19625         0.10301
H         29.71550         0.62840         0.29408
H         27.82155        20.00779        -1.38390
H         31.52997         2.03435        -0.59052
H         32.57004         4.13989        -1.02783
H         32.45647         6.59355        -1.22348
H         31.89489         7.91135        -2.57962
H         31.42167         9.91290        -3.90985
H         31.44266        12.01871        -4.17456
H         31.93578        14.28654        -3.49820
H         31.61488        16.22995        -3.77253
H         29.75230        19.97166        -2.76127
H         31.52317        18.69503        -3.93781
