         661
 CSIRO Nanostructure Databank - Neutral Graphene Oxide Data Set
C          5.94534        31.69960        -0.49551
C          6.13370        32.96872        -0.09310
C          8.39391        27.60774        -0.29619
C          8.29851        28.85304        -0.93599
C          7.09912        29.55365        -0.91291
C          8.23198        31.70634        -1.60909
C          6.90118        30.96489        -1.40501
C          8.37444        33.11505        -1.15697
C          7.33428        33.72465        -0.42481
C          8.67296        35.75613        -0.23966
C          7.50673        35.03986         0.03567
C          8.80040        37.12273         0.38890
C         10.88105        23.49162         0.86757
C         10.86089        24.82129         0.57196
C          9.53872        25.54356         0.44602
C         10.84755        27.30178        -0.88038
C          9.70169        27.04775         0.15020
C         10.85510        28.75501        -1.37530
C          9.53504        29.45943        -1.51965
C         10.81790        31.64703        -1.75362
C          9.52083        30.93681        -1.74455
C         10.71565        33.10458        -2.04162
C          9.57187        33.81167        -1.40481
C         10.93672        35.90474        -1.29860
C          9.71819        35.15789        -0.98802
C         10.99498        37.30505        -0.87945
C          9.98827        37.90930        -0.09338
C         11.20497        40.02960        -0.14854
C         10.06711        39.27120         0.20901
C         11.21209        41.46219        -0.09287
C         13.40110        19.27857         0.85720
C         13.35615        20.60074         1.15068
C         12.10751        21.35781         1.16847
C         13.40819        23.35236         0.57435
C         12.09765        22.71042         0.96516
C         13.41148        24.87685         0.58150
C         12.11288        25.60724         0.44927
C         13.34738        27.63750        -0.36722
C         12.14451        26.89055        -0.26179
C         13.31169        29.01667        -0.87884
C         12.10470        29.57107        -1.28107
C         13.29298        31.67120        -1.95904
C         12.01685        30.98374        -1.62347
C         13.26187        33.11094        -2.42519
C         11.97397        33.88554        -2.32539
C         13.28472        36.09071        -2.15031
C         12.01824        35.30946        -1.92566
C         12.94206        37.57522        -2.41891
C         12.11191        38.08079        -1.26602
C         13.61213        40.09576        -0.91120
C         12.28497        39.38305        -0.81014
C         13.44356        41.58009        -1.10561
C         12.23323        42.19467        -0.68375
C         13.32176        44.41235        -1.04175
C         12.02199        43.65214        -0.99429
C         13.28916        45.77146        -0.82209
C         15.91079        15.04418         1.66702
C         15.89652        16.45671         1.45840
C         14.70521        17.12984         1.18103
C         15.93369        19.30974         1.03910
C         14.69380        18.53426         0.64993
C         15.90532        20.65599         1.25639
C         14.59754        21.30896         1.65798
C         15.86040        23.58705         1.28214
C         14.58497        22.81253         1.37158
C         15.84313        25.04965         0.89888
C         14.67859        25.55868         0.07087
C         15.78668        27.92878         0.29671
C         14.57489        27.06487         0.00913
C         15.82198        29.20925        -0.50051
C         14.56393        29.79099        -0.93853
C         15.75752        31.96473        -1.24796
C         14.55951        31.06915        -1.47805
C         15.84401        33.19876        -2.12952
C         14.57053        33.87640        -2.54041
C         15.85445        36.04634        -2.91144
C         14.56877        35.38432        -2.52071
C         15.95282        37.38776        -3.20287
C         14.12972        38.45528        -2.66761
C         15.79946        40.27269        -2.21018
C         14.53431        39.55288        -1.97482
C         15.81806        41.64660        -1.86895
C         14.58628        42.31598        -1.48212
C         15.77280        44.48211        -1.36785
C         14.55458        43.73943        -1.32656
C         15.73845        45.86240        -0.99101
C         14.49745        46.52480        -0.73473
C         15.64847        48.55362         0.04417
C         14.45844        47.86063        -0.29883
C         15.61382        49.78517         0.69410
C         18.23804        10.66186         2.10013
C         17.89035        12.01680         2.39825
C         17.00147        12.88190         1.79413
C         18.33540        15.04929         2.09384
C         17.08242        14.32542         1.93013
C         18.34368        16.46483         1.79024
C         17.16275        17.14135         1.46629
C         18.41287        19.32192         1.41947
C         17.22947        18.54513         0.91521
C         18.36635        20.72268         1.30475
C         17.14274        21.44596         1.26295
C         18.33805        23.63543         0.99309
C         17.15028        22.86455         1.21882
C         18.37584        25.03699         0.87101
C         17.12187        25.81365         0.83644
C         18.31524        27.84749         0.14129
C         17.11058        27.18335         0.28822
C         18.31653        29.24321        -0.31220
C         17.04909        29.87400        -0.66363
C         18.26533        31.95383        -1.25751
C         17.07558        31.23812        -1.13182
C         18.27589        33.35539        -1.69346
C         17.09689        33.98643        -2.06117
C         18.36784        36.10605        -2.63513
C         17.14619        35.25401        -2.88124
C         18.33645        37.48369        -2.79573
C         17.09948        38.21041        -2.89733
C         18.28375        40.34982        -2.47758
C         17.02886        39.59971        -2.59109
C         18.25979        41.75291        -2.24863
C         17.03558        42.42980        -1.97062
C         18.22490        44.68134        -1.84518
C         16.99922        43.83069        -1.70350
C         18.20590        45.94153        -1.02281
C         16.95866        46.56531        -0.73734
C         18.12492        48.53742         0.11041
C         16.91959        47.88287        -0.20705
C         18.08232        50.01192         0.44882
C         16.85702        50.34830         1.31893
C         17.97466        52.52536         1.82680
C         16.81031        51.82944         1.58380
C         17.99733        53.92414         2.13006
C         20.79568         6.50056         2.34326
C         20.77334         7.88060         2.25779
C         19.47842         8.60244         2.06322
C         20.74907        10.79694         2.50077
C         19.49030        10.09388         2.30893
C         20.81172        12.21470         2.56610
C         19.68664        13.05540         2.75236
C         20.83584        15.10187         2.09730
C         19.59006        14.40090         2.30628
C         20.82064        16.50062         2.00491
C         19.59917        17.20823         1.84351
C         20.84077        19.40487         1.97975
C         19.60077        18.62536         1.73076
C         20.87323        20.84506         1.58279
C         19.62284        21.44421         1.06520
C         20.89176        23.65065         0.91025
C         19.61371        22.91972         0.82982
C         20.88077        25.04952         0.76402
C         19.60200        25.75776         0.66655
C         20.80728        27.91840         0.46871
C         19.55997        27.13935         0.40051
C         20.79882        29.35268        -0.03131
C         19.50638        29.94677        -0.47179
C         20.73331        31.95798        -1.24304
C         19.52717        31.29154        -0.99495
C         20.73288        33.32945        -1.66188
C         19.53460        34.04106        -1.86675
C         20.82416        36.07271        -2.48742
C         19.60357        35.41229        -2.35832
C         20.89056        37.47913        -2.89028
C         19.57311        38.25786        -2.94260
C         20.79745        40.36372        -2.44093
C         19.54105        39.69251        -2.66047
C         20.78059        41.75023        -2.21026
C         19.53438        42.55236        -2.49439
C         20.67697        44.55552        -1.44982
C         19.53024        43.92458        -1.81281
C         20.69619        46.05483        -1.22358
C         19.39196        46.58798        -0.67314
C         20.55202        48.41406         0.58876
C         19.33694        47.85598        -0.03466
C         20.53939        49.81119         1.10785
C         19.32978        50.55305         1.08003
C         20.42718        52.44429         2.16429
C         19.27458        51.83811         1.70606
C         20.34471        53.71045         2.96992
C         19.17279        54.57087         2.53957
C         20.48122        56.62293         2.97926
C         19.24548        55.95828         2.70003
C         20.53291        58.02567         3.06140
C         23.10058         3.62224         1.81945
C         21.95709         4.34148         2.14828
C         23.25831         6.44201         2.12505
C         22.01249         5.75455         2.24336
C         23.22064         7.87852         2.26010
C         21.99482         8.61164         2.25634
C         23.24385        10.71514         2.21518
C         22.00427        10.05068         2.34942
C         23.36411        12.16850         2.34853
C         22.09246        12.95844         2.52022
C         23.29872        15.03180         1.86942
C         22.09087        14.39335         2.15585
C         23.32964        16.45397         1.70728
C         22.12014        17.19891         2.08914
C         23.35665        19.35406         1.47444
C         22.16042        18.70254         2.04493
C         23.32361        20.76841         1.15343
C         22.14040        21.51054         1.21819
C         23.34341        23.60656         0.72302
C         22.11301        22.91899         0.94767
C         23.34045        25.02178         0.53036
C         22.12329        25.73133         0.63203
C         23.37884        27.84057        -0.03543
C         22.12612        27.19795         0.53800
C         23.21931        29.09566        -0.81553
C         22.02597        29.89372        -0.61676
C         23.19671        31.75087        -1.87728
C         22.08350        31.35035        -0.91668
C         22.94389        32.98118        -2.52329
C         21.95751        33.89516        -2.14686
C         23.30196        36.04804        -2.97683
C         22.13889        35.40473        -2.14380
C         23.36185        37.53708        -2.62764
C         22.13518        38.24145        -2.61065
C         23.33791        40.41779        -2.41528
C         22.05024        39.63157        -2.41288
C         23.26841        41.68053        -1.58870
C         21.95169        42.41928        -1.64991
C         23.22028        44.50963        -1.01834
C         22.02488        43.92287        -1.74141
C         23.14491        45.87731        -0.60040
C         21.94625        46.56574        -0.54629
C         23.07231        48.72943         0.41841
C         21.87476        47.79351         0.28264
C         22.97194        49.55628         1.71558
C         21.70071        50.36799         1.62763
C         22.78893        52.18115         3.00988
C         21.77254        51.83607         1.89994
C         22.83956        53.67663         3.21306
C         21.67586        54.43793         3.04850
C         23.01973        56.54014         3.01416
C         21.68709        55.85032         3.08998
C         22.97964        58.00473         3.36271
C         21.76310        58.72198         3.28855
C         23.00092        60.80964         3.59048
C         21.78985        60.13599         3.42617
C         24.29136         4.29430         1.54050
C         25.64145         6.28704         1.20092
C         24.42221         5.69672         1.69392
C         26.08498         7.55696         1.58829
C         24.41139         8.62900         2.36369
C         25.71435        10.64332         1.67855
C         24.47961        10.00667         2.06662
C         25.72041        12.08836         1.55141
C         24.57534        12.83237         1.88289
C         25.72298        14.93526         1.17960
C         24.63613        14.32828         2.02707
C         25.61433        16.36697         0.70725
C         24.47412        17.15201         1.31825
C         25.66611        19.22980         0.49991
C         24.48399        18.57925         1.19400
C         25.74620        20.71982         0.69212
C         24.55263        21.44877         0.82432
C         25.79593        23.54551         0.44628
C         24.56089        22.86974         0.67508
C         25.79998        24.94156         0.15224
C         24.57966        25.68136         0.16032
C         25.79256        27.66423        -0.67594
C         24.58653        27.02575        -0.26202
C         25.79087        29.03900        -1.15710
C         24.51422        29.72192        -1.41830
C         25.74991        31.77398        -2.16691
C         24.47797        31.13935        -1.85787
C         25.85947        33.19925        -2.49859
C         24.77995        33.99402        -2.95703
C         25.84736        36.08586        -2.49110
C         24.65454        35.37123        -2.76461
C         25.84783        37.52008        -2.37814
C         24.60257        38.22499        -2.39518
C         25.80356        40.33760        -1.90069
C         24.59712        39.62697        -2.16008
C         25.75846        41.75136        -1.46862
C         24.51249        42.43004        -1.36488
C         25.63437        44.42437        -0.39637
C         24.43470        43.79051        -0.93711
C         25.60591        45.75150        -0.00233
C         24.40915        46.57716        -0.23965
C         25.55477        48.55816         0.96404
C         24.39289        48.00400         0.26304
C         25.48811        49.74708         1.71856
C         24.21978        50.37589         1.98066
C         25.32365        52.14477         3.22586
C         24.14344        51.58990         2.66946
C         25.40029        53.51766         3.81111
C         24.07515        54.29585         3.73807
C         25.41013        56.53714         3.96512
C         24.06958        55.79396         3.81958
C         25.42658        57.95287         3.64287
C         24.21452        58.68802         3.57182
C         24.20328        60.10926         3.65506
C         26.91801         8.49291         0.95938
C         28.02690        10.64090         0.84065
C         26.87686         9.90738         1.22474
C         28.08045        12.04847         0.82546
C         26.89414        12.78788         1.11230
C         28.01188        14.82281         0.10130
C         26.84996        14.21334         0.87654
C         28.07188        16.39292         0.10017
C         26.97551        17.02840         0.96690
C         28.17656        19.19729         0.72080
C         26.96921        18.52554         0.75228
C         28.19643        20.63782         0.70993
C         26.99401        21.38871         0.63099
C         28.24827        23.53776         0.41008
C         27.02376        22.83101         0.52406
C         28.28126        24.89880         0.05143
C         27.03204        25.61063        -0.11863
C         28.30016        27.75586        -0.56556
C         27.01389        26.96688        -0.51283
C         28.25020        28.85314        -1.63896
C         26.97808        29.69040        -1.52001
C         28.27637        31.68298        -2.37179
C         26.95739        31.03645        -1.96852
C         28.29242        33.17001        -2.04794
C         27.05997        33.93340        -2.34137
C         28.32655        36.08294        -2.60631
C         27.06152        35.33823        -2.42002
C         28.31075        37.54571        -2.40189
C         27.08767        38.24473        -2.25890
C         28.30656        40.44430        -1.88312
C         27.04103        39.66906        -2.01468
C         28.27695        41.91090        -1.45492
C         26.92285        42.40329        -1.02303
C         28.09471        44.29699         0.03165
C         26.89308        43.69724        -0.41497
C         28.06588        45.59625         0.70996
C         26.76481        46.36551         0.66105
C         28.11870        48.49516         1.21020
C         26.83894        47.85777         0.77828
C         28.06921        49.92299         1.77585
C         26.67526        50.26408         2.33724
C         28.37999        52.48450         3.45311
C         26.47690        51.33878         3.20708
C         27.98970        53.84761         3.42753
C         26.68219        54.33620         3.75768
C         26.61304        55.72498         3.88342
C         29.30078        12.74340         0.57527
C         30.53364        14.84199         0.40496
C         29.32715        14.13907         0.41743
C         30.60189        16.27317         0.42968
C         29.39949        17.02711         0.47188
C         30.67877        19.08766         0.68140
C         29.43335        18.42560         0.67288
C         30.74355        20.54806         0.88492
C         29.45509        21.34112         0.94689
C         30.65620        23.31225        -0.16015
C         29.53906        22.86701         0.82582
C         30.85538        24.84651        -0.05464
C         29.53007        25.57643        -0.24246
C         30.76812        27.52811        -1.09909
C         29.54204        26.89296        -0.67601
C         30.78183        28.88674        -1.47305
C         29.54865        29.63382        -1.62154
C         30.81438        31.69261        -2.01968
C         29.55051        30.97695        -1.91620
C         30.82803        33.06401        -2.19980
C         29.59716        33.87738        -2.13204
C         30.91312        36.03115        -2.41699
C         29.61673        35.30459        -2.62233
C         30.86638        37.47541        -2.03685
C         29.59136        38.23651        -2.18821
C         30.74468        40.17767        -0.98679
C         29.58519        39.67042        -1.75717
C         30.55057        41.42034        -0.15548
C         29.41187        42.32281        -0.54322
C         30.56895        44.22752         0.52510
C         29.35888        43.59552        -0.00438
C         30.56196        45.57045         0.93770
C         29.33388        46.32147         0.99475
C         30.56354        48.31733         1.76591
C         29.32939        47.64773         1.39142
C         30.54094        49.62260         2.24888
C         29.26893        50.25624         2.74461
C         29.38629        51.77495         2.84112
C         31.84217        16.94522         0.48664
C         33.13745        19.05746         0.49139
C         31.89391        18.35106         0.55478
C         33.18464        20.44665         0.34521
C         31.97461        21.25472         0.45859
C         33.09663        23.01119        -0.89037
C         31.95317        22.55714         0.00300
C         33.15162        24.52118        -1.34518
C         31.95163        25.37661        -0.95138
C         33.22718        27.33067        -1.82748
C         31.96848        26.71237        -1.24148
C         33.26622        28.83365        -1.67341
C         32.05201        29.55907        -1.70595
C         33.33253        31.62027        -2.04254
C         32.07498        30.96559        -1.92247
C         33.39647        33.05488        -2.40798
C         32.08744        33.77307        -2.43443
C         33.12066        35.63593        -1.07469
C         32.14429        35.24920        -2.18486
C         33.01011        37.09528        -0.60599
C         31.89419        37.97842        -1.07680
C         33.05349        39.99575        -0.11985
C         31.87600        39.43197        -0.76745
C         33.04502        41.40369         0.17402
C         31.84296        42.14557         0.11235
C         33.04041        44.15666         0.86867
C         31.81000        43.50208         0.48894
C         33.01512        45.52016         1.22841
C         31.80218        46.24015         1.27213
C         31.78349        47.59696         1.64950
C         34.40602        21.11299         0.07256
C         35.58770        23.18089        -0.35098
C         34.40948        22.44709        -0.37506
C         35.61963        24.58482        -0.60973
C         34.42788        25.27363        -1.00784
C         35.68096        27.36598        -1.12087
C         34.46527        26.64511        -1.26294
C         35.74897        28.76916        -1.42235
C         34.51078        29.50187        -1.69710
C         35.82137        31.63449        -1.95514
C         34.53299        30.90896        -1.87880
C         35.85274        33.11265        -1.77704
C         34.67177        33.91670        -2.27286
C         35.62127        35.88880        -1.01925
C         34.50397        35.17474        -1.41979
C         35.54555        37.14211        -0.33991
C         34.21453        37.70602         0.12060
C         35.38820        39.87219         0.60109
C         34.20194        39.23125         0.13006
C         35.42680        41.24264         0.78020
C         34.25651        42.04201         0.60451
C         34.24234        43.41239         0.90873
C         36.81411        25.29457        -0.43938
C         38.08586        27.38878        -0.54104
C         36.87367        26.68603        -0.69142
C         38.17785        28.76963        -0.85508
C         36.97197        29.43238        -1.31713
C         38.23567        31.59007        -1.06845
C         37.06849        30.86256        -1.66176
C         38.16563        33.06218        -0.87705
C         36.95772        33.77925        -1.35542
C         38.18998        35.96047        -0.74590
C         36.95182        35.26765        -1.26586
C         37.98367        37.22036        -0.02405
C         36.72620        37.77690         0.13708
C         36.58603        39.02843         0.98014
C         39.39734        29.45124        -0.73011
C         40.66879        31.65604        -0.51569
C         39.56650        30.87677        -1.19013
C         40.60310        32.98829        -0.30789
C         39.42262        33.80267        -0.59710
C         39.40984        35.15577        -0.47490
O         37.89883        32.11049         0.24936
O         30.64038        38.21327        -3.26403
O          8.75290        31.39085        -2.93326
O         12.88917        25.54131         1.74085
O         23.59401        28.89304        -2.23111
O         16.24054        25.81191         2.06997
O         30.14279        20.90375         2.19084
O         27.44218        51.68681         4.15362
O         22.39807        41.74041        -0.41771
O         18.19510        45.33269        -3.31429
O         12.12567        37.66061        -3.55993
O         31.99686        35.95470        -3.43571
O         27.14994        45.64888         1.88074
O         28.97588        35.57908        -3.88809
O         21.16972        47.46469         1.53221
O         20.72712        20.46777         2.99609
O         15.04571        23.52435         2.53979
O         11.03543        33.55195        -3.39844
O         20.76481        29.03556         1.42465
O         24.67448        47.71987        -1.16689
O         14.85940        38.04246        -3.77646
O         32.73443        33.34338        -3.68620
O         23.74544        33.33030        -3.60814
O         37.81954        35.98718        -2.18830
O         24.41834        56.29689         5.08879
O         29.23982        40.38598        -3.01894
O         10.16298        28.80137        -2.67630
O         20.29840        37.85785        -4.16803
O         13.24879        32.03988        -3.39859
O         27.66901        14.38870        -1.30504
O         23.07287        27.91010         1.39378
O         36.72689        31.18254        -3.04787
O         32.64377        22.24731        -2.01568
O         31.79396        37.22588         0.21519
O         19.07388         8.45443         0.63855
O         19.66936        21.95543        -0.30756
O         22.33497        17.99938         3.31573
O         24.56043        53.68292         4.99003
O         25.55328         7.99879         2.82889
O         14.26425        35.83018        -1.10004
O         15.39551        33.19458        -3.53106
O         18.61409        12.55694         3.48778
O         27.73160        48.48292        -0.22963
O         22.93509        12.67649         3.70541
O         28.92473        33.64847        -0.82029
O         25.31279        16.33799        -0.72178
H         26.13442        16.07253        -1.20915
O         22.92158        35.91952        -4.36040
H         23.65095        36.24889        -4.92423
O         25.42068        19.05818        -0.94455
H         25.33432        18.07928        -1.10532
O         29.79016        23.36788         2.16534
H         30.13680        22.60138         2.69011
O         27.33009        16.78065         2.34718
H         26.51885        16.79175         2.89884
O         30.11759        40.87025         1.16196
H         30.08435        41.62142         1.79360
O         17.49440        18.37034        -0.52509
H         16.62319        18.13624        -0.93699
O          8.75804        24.94259        -0.59442
H          9.20238        25.18035        -1.44344
O         22.46952        35.71411        -0.75353
H         21.85150        35.22433        -0.17040
O         15.50733        32.54954         0.08659
H         15.58722        31.82733         0.74729
O         35.02798        34.39875        -3.58990
H         34.20491        34.37275        -4.13805
O         31.37029        25.19289         1.26351
H         30.78430        24.75727         1.93440
O         15.59463        28.37922         1.69030
H         15.64528        27.56176         2.24916
O         22.34307        51.52514         4.22592
H         22.81106        51.94958         4.97801
O         22.89518        48.66311         2.85263
H         22.60650        49.19727         3.62494
O         39.90637        30.81642        -2.61142
H         39.10398        30.54291        -3.10747
O         29.02830        49.63267         4.02345
H         28.40570        50.21432         4.52312
O         23.48244        40.93064        -3.78960
H         23.39912        40.17446        -4.40850
O         28.31203        31.64256        -3.83050
H         28.23969        30.70368        -4.10752
O         14.97463        25.12257        -1.28752
H         14.30126        25.50155        -1.89091
O         27.82643        16.86288        -1.24984
H         28.48223        16.43521        -1.84645
O         33.23343        27.12328        -3.26725
H         33.21922        26.14011        -3.41051
O         28.15754        28.23068        -2.94882
H         28.97270        27.70354        -3.09349
O         22.27645        44.20874        -3.15096
H         22.04987        45.15717        -3.30098
O         34.09416        37.31447         1.52090
H         33.14602        37.42772         1.75971
O         13.67245        22.90733        -0.78745
H         12.86093        23.04050        -1.32059
O         20.03440        53.30704         4.34692
H         19.96719        54.12460         4.88376
O         37.78734        39.79954         0.95527
H         37.97290        40.05187         0.02760
O         30.17319        23.00740        -1.48617
H         30.97103        22.67011        -1.99944
O         22.31357        52.43241         0.66100
H         22.57790        51.69833         0.05712
O         32.70447        34.79854         0.04811
H         32.09255        35.33458         0.60357
O         28.22655        50.82980         0.66262
H         27.87924        50.35993        -0.13445
O         10.59232        26.41965        -2.00922
H         10.23092        27.00775        -2.72312
O         18.72901         7.06038         0.43708
H         19.45619         6.73677        -0.14837
O         20.78193        46.60366        -2.59888
H         19.97874        46.29676        -3.08531
O         28.84835        14.55665        -2.13879
H         29.29831        13.67896        -2.06596
O          7.58963        37.87352         0.21498
H          7.47015        38.03700        -0.74321
O         17.07397        49.65042         2.58508
H         16.34225        49.88517         3.19282
O         17.87395        50.72078        -0.80811
H         18.64955        50.55980        -1.38511
O         33.15981        24.48464        -2.80333
H         32.93230        23.52939        -3.02724
O         22.98667        49.70192        -0.65787
H         23.45457        49.30659        -1.43153
O          6.24039        30.87571        -2.69826
H          6.96064        30.81836        -3.37018
O         17.35203        34.80564        -4.27207
H         16.62805        34.16108        -4.47312
O         19.55743        42.81042        -3.93121
H         18.73332        43.29255        -4.17434
O         23.49822        56.42872         1.62289
H         22.80168        56.79744         1.03925
O         22.48081        31.98068         0.37764
H         21.97837        31.52787         1.09111
O         11.10224        44.26140        -0.08514
H         11.49830        44.24541         0.80988
O         14.53167        21.13314         3.09846
H         14.88355        21.96441         3.50096
O         14.79246        18.38176        -0.83520
H         14.63213        19.26821        -1.22643
O         25.01369        14.58273         3.43540
H         24.37787        14.05815         3.98177
O         28.39763        28.46327         0.70692
H         28.52270        27.79857         1.41648
O         28.49097        42.71995        -2.66603
H         29.03889        42.16646        -3.27521
O         17.35666        44.54147        -4.17430
H         16.45810        44.93534        -4.05130
O         14.27081        39.91788         0.38953
H         13.64279        40.21239         1.08215
O         10.13275        27.75627         1.34229
H          9.44488        27.65759         2.03355
H          5.02209        31.16667        -0.22288
H          5.37657        33.46942         0.52919
H          7.46954        27.09945         0.01728
H          6.22202        29.05167        -0.47528
H          6.71274        35.51924         0.62616
H          8.91086        36.97149         1.50116
H          9.92524        22.96373         1.00762
H          8.96132        25.42409         1.40215
H          9.22381        39.75875         0.71929
H         10.31601        41.99178         0.26386
H         12.47835        18.75141         0.56525
H         11.16026        20.81151         1.29931
H         11.54228        43.71070        -2.01311
H         12.32750        46.26226        -0.61266
H         14.96709        14.49153         1.54692
H         13.75866        16.56846         1.18452
H         13.48381        48.33120        -0.10096
H         14.64440        50.27835         0.86906
H         17.46218        10.01338         1.66298
H         16.24081        12.48265         1.10663
H         15.83776        52.34315         1.64299
H         17.07051        54.50791         2.01646
H         19.84634         5.94650         2.39312
H         18.67329         8.12386         2.68135
H         18.35630        56.57293         2.49089
H         19.60307        58.60477         2.96707
H         23.05611         2.52835         1.72610
H         20.99458         3.82938         2.28787
H         23.00511        61.90536         3.67655
H         20.84647        60.69875         3.38245
H         25.16702         3.72054         1.20431
H         26.20780         5.72331         0.44441
H         26.39175        58.47045         3.53935
H         25.14992        60.64700         3.80632
H         27.61879         8.14964         0.18358
H         28.92279        10.07974         0.53524
H         28.74229        54.60327         3.15461
H         27.54638        56.28604         3.71597
H         30.24858        12.18505         0.60784
H         31.47225        14.27657         0.51052
H         31.49665        50.11825         2.48016
H         30.14126        52.29065         2.23139
H         32.77634        16.36711         0.44268
H         34.06890        18.47782         0.40762
H         33.95321        46.02595         1.50014
H         32.72737        48.09530         1.91553
H         35.35956        20.58566         0.23412
H         36.51841        22.69140        -0.02190
H         36.35564        41.71414         1.13386
H         35.16956        43.90674         1.23387
H         37.72353        24.76158        -0.12624
H         38.98314        26.85069        -0.20251
H         38.84069        37.69315         0.47982
H         36.43796        38.70153         2.04648
H         40.28651        28.88561        -0.41053
H         41.59293        31.11263        -0.26609
H         41.47411        33.51143         0.11715
H         40.32691        35.69174        -0.18381
