         598
 CSIRO Nanostructure Databank - Neutral Graphene Oxide Data Set
C         25.88809        67.97171        -6.42786
C         26.12097        69.22061        -7.05140
C         25.35739        69.64297        -8.17596
C         26.52208        71.77270        -8.22995
C         25.57040        70.89385        -8.75086
C         26.88163        64.71205        -2.80361
C         27.15966        65.91131        -3.50165
C         26.42164        66.32023        -4.64861
C         27.72560        68.40455        -4.87589
C         26.66260        67.55171        -5.32121
C         27.91493        69.69694        -5.41750
C         27.11664        70.10684        -6.52537
C         28.24783        72.29933        -6.53835
C         27.30445        71.40534        -7.10346
C         28.25332        61.22660         0.34482
C         28.37569        62.54475        -0.14350
C         27.45295        63.04609        -1.08414
C         28.75119        65.12307        -1.22949
C         27.68024        64.28996        -1.71272
C         28.97638        66.37124        -1.87556
C         28.23368        66.72689        -3.03042
C         29.47493        68.95397        -3.12041
C         28.58814        67.92228        -3.80128
C         29.48563        70.34282        -3.61199
C         28.82380        70.64721        -4.81124
C         29.89758        72.87445        -4.78681
C         28.98630        71.96342        -5.38204
C         30.39943        57.15549         1.98444
C         30.39096        58.58433         1.90541
C         29.26272        59.24610         1.38423
C         30.48799        61.38337         1.36207
C         29.30807        60.62005         1.05992
C         30.53271        62.77512         1.05198
C         29.49436        63.35437         0.27592
C         30.61972        65.57468         0.40285
C         29.61630        64.70175        -0.16867
C         30.52285        66.98155        -0.02169
C         29.82668        67.30927        -1.20427
C         30.54492        69.78789        -0.98953
C         29.77162        68.70010        -1.69098
C         30.96532        70.98092        -1.73749
C         30.31627        71.29959        -2.96055
C         31.56809        73.41760        -3.01409
C         30.59284        72.56033        -3.59921
C         32.95995        53.07285         1.38420
C         32.86997        54.35404         1.93940
C         31.66010        55.07004         1.90630
C         32.73308        57.14979         2.81560
C         31.56080        56.43552         2.26035
C         32.76217        58.65871         2.71748
C         31.57845        59.33421         2.16146
C         32.82474        61.47317         2.16717
C         31.62246        60.72225         1.91199
C         32.79099        62.86728         1.99240
C         31.66531        63.56610         1.42862
C         32.82839        65.73998         1.71597
C         31.65387        64.99670         1.22248
C         32.84327        67.17001         1.91643
C         31.11827        68.07926         0.69650
C         32.28724        70.28338         0.68034
C         31.27674        69.38170         0.20782
C         32.75263        71.35418        -0.07564
C         32.02308        71.76434        -1.24950
C         33.35734        73.83911        -1.34292
C         32.32749        73.02262        -1.89649
C         35.42277        48.86899         0.75738
C         35.40550        50.23036         1.09486
C         34.22114        51.00477         0.97394
C         35.39426        52.98887         1.83362
C         34.17914        52.34349         1.38325
C         35.38964        54.31770         2.30671
C         34.08162        54.95937         2.54688
C         35.29493        57.19201         2.96171
C         34.04132        56.43136         2.94320
C         35.29777        58.61496         2.83463
C         34.06980        59.34703         2.66916
C         35.30563        61.43250         2.49510
C         34.06413        60.75004         2.48119
C         35.30336        62.90349         2.49101
C         34.00626        63.63010         2.28389
C         35.27633        65.75894         2.21363
C         34.03062        65.07082         1.99143
C         35.25475        67.22652         2.53692
C         33.98754        67.91774         2.12513
C         35.20060        70.01935         1.60490
C         34.03846        69.34739         1.92262
C         35.26531        71.30780         0.83583
C         34.12840        71.93292         0.06745
C         35.40714        74.08761        -0.02349
C         34.27926        73.34605        -0.39708
C         37.69841        44.44787         0.63134
C         37.58071        45.79837         1.15229
C         36.52836        46.69027         0.69983
C         37.77642        48.66762         1.50793
C         36.56231        48.05209         0.99875
C         37.78573        50.06863         1.75647
C         36.60432        50.84963         1.60427
C         37.76439        52.85963         2.46619
C         36.59810        52.23743         1.92023
C         37.83147        54.28709         2.69062
C         36.58459        54.97969         2.68541
C         37.88156        57.14706         3.09362
C         36.53706        56.39882         3.10529
C         37.82987        58.64821         3.05193
C         36.53955        59.34544         2.83865
C         37.79725        61.49023         2.53023
C         36.53720        60.74366         2.64233
C         37.81414        62.93258         2.43181
C         36.54455        63.61018         2.00281
C         37.73869        65.80015         2.39815
C         36.49304        65.08902         2.25594
C         37.70877        67.24471         2.22943
C         36.49883        67.94712         2.11654
C         37.67963        70.04621         1.70635
C         36.46532        69.32570         1.79558
C         37.68236        71.48774         1.43306
C         36.49564        72.12851         1.02618
C         37.73169        74.24898         0.80868
C         36.53670        73.50487         0.64172
C         39.98972        40.31262        -0.44836
C         39.98827        41.55261         0.22591
C         38.84787        42.34630         0.29790
C         40.08225        44.31249         1.27626
C         38.85129        43.69244         0.79034
C         40.12404        45.64675         1.61701
C         38.89498        46.45477         1.70620
C         40.18833        48.58837         2.01500
C         38.96270        47.92943         1.73119
C         40.24104        49.99200         2.22802
C         38.97394        50.68178         2.26023
C         40.58363        52.99051         2.70516
C         38.82653        51.98610         2.78064
C         40.34904        54.33907         2.35879
C         39.09745        55.01712         2.64938
C         40.22432        57.20271         2.17059
C         39.08871        56.44222         2.63095
C         40.27475        58.60624         2.20688
C         39.10570        59.38010         2.69479
C         40.21194        61.58489         2.07655
C         38.99755        60.81873         2.40298
C         40.28184        63.00062         2.49405
C         38.99537        63.67046         2.57623
C         40.18185        65.86455         2.93155
C         38.94723        65.11585         2.59114
C         40.13793        67.31392         2.60771
C         38.92835        67.95371         2.13252
C         40.14611        70.09595         1.81164
C         38.88649        69.35419         1.92796
C         40.10782        71.56828         1.95601
C         38.87597        72.24241         1.53219
C         40.18681        74.33241         1.34090
C         38.92348        73.63693         1.26141
C         42.32055        36.92807        -3.12978
C         42.31973        37.86093        -2.05086
C         41.15818        38.45862        -1.55765
C         42.42779        40.12135        -0.20367
C         41.17911        39.58232        -0.67269
C         42.50950        41.41421         0.35263
C         41.25960        42.06612         0.78456
C         42.64318        44.17015         1.24353
C         41.32811        43.49450         1.29945
C         42.69744        45.56732         1.73295
C         41.39719        46.29787         2.02318
C         42.75105        48.52610         2.07635
C         41.42226        47.79599         2.20681
C         42.72394        49.99399         1.81103
C         41.50358        50.71751         2.11860
C         42.58503        52.84716         1.34106
C         41.54494        52.14420         2.09599
C         42.58741        54.32699         1.34852
C         41.45059        55.02207         1.71938
C         42.59118        57.25503         1.07256
C         41.33461        56.48012         1.50876
C         42.62692        58.67212         1.45772
C         41.47215        59.32663         1.84770
C         42.73845        61.56668         2.03262
C         41.48818        60.82417         1.83263
C         42.75063        62.93153         2.29149
C         41.51145        63.65335         2.56657
C         42.88870        65.76558         2.88744
C         41.56246        65.08318         2.99114
C         43.05355        67.14839         3.12495
C         41.18943        68.14827         2.89048
C         42.71368        70.16139         2.32080
C         41.41889        69.42068         2.23138
C         42.68400        71.50367         2.06370
C         41.41433        72.29644         2.08305
C         42.65429        74.39100         1.56285
C         41.40908        73.71896         1.65282
C         44.71016        34.90336        -5.19407
C         43.50560        35.38261        -4.66642
C         44.79719        37.03792        -3.36967
C         43.49283        36.42894        -3.71382
C         44.85367        37.91156        -2.13932
C         43.59832        38.16963        -1.38699
C         44.94122        40.04636        -0.22396
C         43.65853        39.35349        -0.38501
C         44.94794        41.39291         0.11416
C         43.75009        42.08468         0.50446
C         45.09949        44.17104         0.95944
C         43.80347        43.47892         0.91291
C         45.14052        45.61391         1.16104
C         43.92652        46.36554         1.51187
C         45.26099        48.47575         1.66301
C         43.94193        47.73083         1.67582
C         45.16990        49.95127         1.31378
C         43.89798        50.64850         1.41868
C         45.11871        52.84944         0.68496
C         43.84004        52.05747         0.98053
C         45.09970        54.24885         1.35838
C         43.84539        55.00638         0.93601
C         45.18417        57.18784         1.05399
C         43.87882        56.50400         0.83657
C         45.17633        58.67639         1.05052
C         43.88810        59.42901         1.28325
C         45.20806        61.60727         1.42562
C         44.01602        60.76750         2.00239
C         45.23818        62.93667         2.19033
C         44.05064        63.62428         2.38005
C         45.28934        65.79948         2.41732
C         44.07831        65.06491         2.55904
C         45.29231        67.21711         2.30020
C         44.09233        67.91788         2.58072
C         45.26564        70.06700         2.07135
C         43.95627        69.31484         1.99651
C         45.21815        71.49318         1.68167
C         43.90567        72.22851         1.64566
C         45.12409        74.37802         1.52740
C         43.89943        73.71513         1.62697
C         45.95830        35.38939        -4.79024
C         47.28582        36.91576        -3.35818
C         46.06479        36.42616        -3.83102
C         47.40362        37.81175        -2.24019
C         46.16610        38.11834        -1.48228
C         47.48175        39.98716        -0.38869
C         46.20321        39.32890        -0.47389
C         47.50641        41.43691        -0.34361
C         46.20022        42.16128        -0.01244
C         47.58637        44.10642         0.73188
C         46.26361        43.48882         0.61839
C         47.58689        45.63325         0.76654
C         46.29394        46.31193         0.84368
C         47.48275        48.53769         0.33255
C         46.26599        47.78912         0.76117
C         47.67522        49.93391         0.89593
C         46.32835        50.61610         1.00028
C         47.65373        52.83888         1.05761
C         46.36446        52.09111         1.09089
C         47.59337        54.32629         1.02799
C         46.40112        55.00625         1.12749
C         47.63906        57.18426         1.32095
C         46.35122        56.46601         1.17743
C         47.63948        58.65860         1.24236
C         46.44863        59.39236         1.33464
C         47.67918        61.37643         1.99942
C         46.47479        60.78788         1.57953
C         47.82331        62.82506         2.33537
C         46.52657        63.57141         2.49927
C         47.81053        65.82529         2.12136
C         46.57700        65.11608         2.52485
C         47.74881        67.24889         1.95252
C         46.51521        67.95254         2.14395
C         47.77511        70.16267         2.25548
C         46.47069        69.39623         2.13053
C         47.68839        71.60270         1.78239
C         46.45776        72.27982         1.69338
C         47.60166        74.41031         1.43762
C         46.39157        73.69916         1.54576
C         48.60985        38.29157        -1.77780
C         49.97928        40.01050        -0.62363
C         48.73877        39.16260        -0.53362
C         50.02052        41.36747        -0.40590
C         48.79846        42.12303        -0.11192
C         50.14696        44.15246         0.51024
C         48.82712        43.42672         0.28144
C         50.07600        45.63061         0.16748
C         48.76755        46.29431         0.13930
C         49.98362        48.51408        -0.19564
C         48.71090        47.79007        -0.09596
C         49.92949        49.99131        -0.31954
C         48.63737        50.75633        -0.00150
C         50.06820        52.83130         0.42134
C         48.88300        52.14950         0.58545
C         50.19406        54.25133         0.87676
C         48.91701        54.98390         1.17518
C         50.13558        57.17859         0.62086
C         48.95339        56.47288         1.28436
C         50.14487        58.67970         0.95061
C         48.88210        59.27868         1.49200
C         50.63622        61.64582         1.86140
C         48.79908        60.53422         2.09788
C         50.35766        62.99964         1.54516
C         49.11749        63.64886         2.05904
C         50.10432        65.81977         1.25570
C         49.00179        65.11992         1.81658
C         50.10855        67.25813         1.23267
C         48.93184        67.97842         1.61012
C         50.13313        70.11535         1.47105
C         48.95178        69.41812         1.64676
C         50.20178        71.59605         1.82248
C         48.88059        72.31322         1.62207
C         50.06364        74.43890         1.25962
C         48.84559        73.73339         1.43620
C         51.24737        42.11133        -0.48889
C         52.47058        44.22857        -0.42543
C         51.30457        43.47231        -0.19851
C         52.47711        45.64443        -0.33482
C         51.20795        46.35074        -0.15066
C         52.43966        48.51736        -0.40723
C         51.18025        47.80802        -0.29096
C         52.48768        49.93109        -0.34508
C         51.23806        50.72528        -0.35690
C         52.48990        52.83649        -0.00213
C         51.28450        52.16149         0.00880
C         52.55682        54.27106         0.19366
C         51.44868        55.01801         0.57006
C         52.70428        57.19619         0.53428
C         51.50305        56.47066         0.68075
C         52.71610        58.65516         0.67134
C         51.44662        59.42045         0.87396
C         52.59601        61.60863         0.53149
C         51.58856        60.87919         1.20635
C         52.47288        63.00345         0.31121
C         51.29324        63.68364         0.75522
C         52.32140        65.81725         0.14288
C         51.23561        65.13226         0.66878
C         52.48665        67.23890         0.45817
C         51.31427        67.94875         0.96930
C         52.58330        70.17114         0.59638
C         51.37505        69.38056         1.21173
C         52.33373        71.61214         0.35366
C         51.30645        72.32926         1.09830
C         52.43533        74.46268         0.57106
C         51.26699        73.74089         0.97138
C         53.65293        46.36637        -0.53795
C         54.88358        48.49223        -0.68029
C         53.67165        47.79282        -0.52560
C         54.93144        49.90167        -0.62789
C         53.71452        50.60951        -0.37242
C         55.03502        52.77341        -0.50148
C         53.75355        52.06631        -0.15359
C         54.95669        54.23094        -0.80223
C         53.74721        54.99131        -0.32662
C         55.23066        57.03643        -0.49439
C         53.93638        56.42890         0.08654
C         55.38309        58.49698        -0.46147
C         53.82312        59.50124         0.57390
C         54.77974        61.56449        -0.54831
C         53.76271        60.89523         0.16798
C         54.66254        62.98018        -0.77791
C         53.53339        63.67828        -0.35938
C         54.56478        65.86066        -1.15201
C         53.29439        65.10745        -0.78003
C         54.41393        67.36215        -1.32577
C         53.63512        68.01780        -0.19474
C         54.63712        70.20866        -0.82684
C         53.58424        69.49121        -0.22955
C         54.73706        71.64599        -0.62068
C         53.51695        72.39029        -0.24342
C         54.85318        74.43729         0.09034
C         53.59962        73.81352         0.12825
C         56.13688        50.60517        -0.94343
C         57.32954        52.69773        -1.47825
C         56.19341        52.00113        -1.01556
C         57.38036        54.11698        -1.56400
C         56.22669        54.89713        -1.17737
C         57.30170        56.91536        -2.02584
C         56.20776        56.26880        -1.32880
C         57.20466        58.19085        -2.59351
C         55.61542        59.35097        -1.48761
C         56.46619        61.48118        -2.30128
C         55.71046        60.80525        -1.37392
C         56.64114        62.92617        -2.38074
C         55.85726        63.72619        -1.33737
C         56.76752        65.87414        -2.34787
C         55.62405        65.18427        -1.67048
C         56.81661        67.38293        -2.21239
C         55.72087        68.09719        -1.54561
C         57.01513        70.21405        -1.70180
C         55.76335        69.47241        -1.38148
C         57.10568        71.69180        -1.35936
C         55.93243        72.34100        -0.73428
C         57.26781        74.35714        -0.16239
C         56.03435        73.73021        -0.28703
C         58.55226        54.79893        -1.95781
C         59.70107        56.93159        -2.56792
C         58.55152        56.20132        -2.18619
C         59.63821        58.33162        -2.80366
C         58.35094        58.96561        -2.92159
C         59.33129        61.27531        -3.02805
C         58.25226        60.36526        -3.15154
C         59.25227        62.73290        -2.92674
C         57.95988        63.52082        -2.87295
C         59.33875        65.74410        -2.78758
C         57.99148        65.06921        -2.80005
C         59.43419        67.25264        -2.52625
C         58.19478        68.10322        -2.36215
C         59.55936        70.08142        -1.58550
C         58.26422        69.44421        -1.81015
C         59.63602        71.43424        -0.96691
C         58.46453        72.31521        -1.14652
C         59.76106        74.04958         0.20074
C         58.53090        73.69519        -0.51714
C         60.75378        59.18181        -2.92761
C         61.78765        61.36363        -2.88475
C         60.61846        60.59341        -2.96100
C         61.72686        62.75446        -2.72910
C         60.45679        63.45984        -2.72234
C         61.73722        65.53389        -2.18775
C         60.52728        64.89729        -2.51528
C         61.80004        66.93599        -1.80926
C         60.67770        67.74278        -1.89924
C         61.92649        69.61932        -0.73589
C         60.77244        69.18748        -1.57680
C         61.96129        71.00780        -0.18188
C         60.79686        71.91374        -0.40154
C         62.08779        73.67860         0.96891
C         60.85701        73.23577         0.19948
C         62.94604        63.43167        -2.53406
C         64.21916        65.39248        -1.90045
C         62.98388        64.79213        -2.20243
C         64.30813        66.71614        -1.39572
C         63.07107        67.50717        -1.33437
C         64.43930        69.41095        -0.52033
C         63.14271        68.79505        -0.87078
C         64.50624        70.82679        -0.05748
C         63.27046        71.62635         0.17104
C         64.62841        73.51883         1.13998
C         63.33140        72.87179         0.69134
C         65.51208        67.20834        -0.92267
C         66.89361        69.23435        -0.24434
C         65.58616        68.48516        -0.13422
C         66.98172        70.53733         0.13526
C         65.76018        71.24004         0.70903
C         67.04994        73.37168         0.52277
C         65.86801        72.74698         0.75183
C         68.21796        71.28630         0.00634
C         68.24779        72.63273         0.18893
O         42.18661        48.18846         3.38797
O         34.60705        63.44332         3.64580
O         40.68971        61.33969         0.69667
O         48.45569        46.84869        -1.18602
O         40.59891        72.02591         3.27449
O         33.94713        55.36087         3.94916
O         48.74796        63.18505         3.39043
O         43.61982        37.94551         0.03378
O         42.80737        52.29171        -0.02174
O         57.02178        65.56966        -3.75067
O         46.56824        64.30326         3.75136
O         55.92843        58.76526        -2.73409
O         30.05190        68.01019        -4.05371
O         41.00424        69.48247         0.80145
O         46.35613        48.37715        -0.57622
O         57.23459        68.01194        -3.45401
O         54.73037        52.45904         0.89387
O         46.70204        42.12092        -1.39853
O         35.09571        71.04175        -0.63271
O         55.14853        56.52872         0.88590
O         49.72089        54.39005         2.26246
O         53.90104        54.65626        -1.75721
O         55.12454        59.04350         0.80926
O         42.08940        67.80809         3.89231
O         31.61327        67.83414         1.96852
O         43.86645        55.64408        -0.36415
O         59.58377        66.69531        -3.86619
O         52.36909        72.01108        -1.05983
O         38.70606        59.17281         4.10725
O         53.81685        67.46308         1.13369
O         32.81992        70.03628         1.93893
O         44.46312        71.66566         0.39114
O         39.78199        52.43033         3.70853
O         40.78591        65.41937         4.17959
O         56.85681        71.26919        -2.74017
O         37.88992        45.91188         2.58997
O         60.50416        70.01173        -2.75464
O         41.24898        42.35367         2.22214
O         48.10857        70.27718         3.64163
O         47.04039        52.39895         2.37926
O         37.30734        56.63770         4.33135
O         50.52180        59.38781        -0.30482
O         47.84134        44.85329         1.96688
O         49.89184        60.99115         2.83223
O         64.78472        70.50219        -1.45542
O         32.46256        57.96746         3.99091
O         46.21434        37.89996        -0.07077
O         44.80407        38.51123        -3.47098
O         58.71948        73.49001        -1.97332
O         44.42793        59.30186        -0.05518
O         41.54308        56.91559         0.12612
O         52.54146        69.82822         1.99724
O         56.96551        60.81615        -3.41855
O         50.47408        50.46632        -1.60795
O         45.03103        61.96550         0.10665
O         48.44151        56.87738         2.57106
O         61.58148        69.86159         0.68449
O         56.85258        63.23939        -3.78054
O         29.07727        69.65271        -0.82253
O         42.11978        45.62851         3.09282
O         53.60076        67.57006        -2.52810
H         54.19416        67.53607        -3.31043
O         35.25954        67.30130         4.01490
H         34.60490        66.65171         4.35013
O         64.69861        74.86410         0.65142
H         64.81334        74.83270        -0.32068
O         44.95406        54.06538         2.78445
H         45.77751        53.62317         3.10961
O         56.83297        63.77953        -0.22787
H         56.35446        64.03899         0.58917
O         50.45580        44.07271         1.93399
H         50.43050        43.12926         2.19772
O         65.39278        68.10796         1.26383
H         65.40108        68.94356         1.79691
O         45.23062        53.02840        -0.73344
H         44.32128        53.14819        -1.09192
O         61.82956        73.58775         2.38177
H         61.00468        74.07811         2.57523
O         43.78938        69.02304         0.56427
H         43.85273        69.89190         0.09244
O         49.78201        57.04232        -0.78832
H         50.15358        57.83295        -1.25133
O         47.93512        50.96990        -1.24017
H         48.61408        51.08692        -1.94405
O         48.26620        49.80971         2.20362
H         48.04406        50.62764         2.70862
O         48.88657        38.28850         0.62865
H         48.05169        37.76804         0.69713
O         44.35674        60.41984         3.36902
H         44.41348        61.24433         3.89850
O         65.56393        70.77117         2.08203
H         66.34202        71.05121         2.60908
O         45.77823        48.38639         3.01742
H         45.04210        48.54748         3.64502
O         52.57068        65.01394        -2.05587
H         52.60493        65.91060        -2.47221
O         50.41250        71.64383         3.26538
H         49.62222        71.14183         3.65457
O         36.49345        63.42387         0.54056
H         37.34222        63.74124         0.16421
H         26.66729        72.76244        -8.68567
H         28.38004        73.29361        -6.99104
H         30.06850        73.84775        -5.27048
H         31.77510        74.38913        -3.48668
H         33.51128        74.84819        -1.75508
H         35.50094        75.12167        -0.38985
H         37.74122        75.31121         0.52296
H         40.20021        75.39513         1.05306
H         42.65824        75.47498         1.37063
H         45.12885        75.47534         1.44496
H         47.58438        75.50376         1.32367
H         50.04687        75.53632         1.18574
H         52.44861        75.55365         0.70930
H         54.94463        75.48845         0.39962
H         57.31006        75.37747         0.24711
H         59.77600        74.99064         0.77360
H         62.30265        74.75748         0.71233
H         64.58432        73.59358         2.26248
H         67.10538        74.46841         0.58915
H         25.08980        67.31841        -6.80925
H         24.59184        68.96977        -8.58732
H         24.97267        71.19865        -9.62141
H         26.05976        64.06556        -3.14355
H         25.61006        65.67256        -5.01149
H         27.37430        60.62717         0.06613
H         26.61444        62.41437        -1.41062
H         29.50834        56.61303         1.63502
H         28.35843        58.66701         1.14654
H         32.05338        52.59940         0.97942
H         30.77618        54.58076         1.47050
H         34.50996        48.39927         0.36254
H         33.30109        50.52156         0.61349
H         36.84739        44.02352         0.07827
H         35.68025        46.27194         0.13825
H         39.04554        39.93735        -0.87013
H         37.90360        41.95561        -0.10989
H         41.34928        36.56774        -3.50140
H         40.18951        38.17161        -1.99407
H         44.67525        34.08811        -5.93048
H         42.55447        34.92610        -4.97444
H         46.87533        34.94690        -5.20428
H         48.21606        36.52708        -3.79878
H         49.52969        38.05047        -2.33159
H         50.92159        39.48036        -0.83023
H         52.14877        41.59849        -0.85823
H         53.38428        43.71684        -0.76570
H         54.59935        45.82590        -0.68884
H         55.81201        47.92712        -0.84829
H         57.02080        50.01760        -1.23329
H         58.21148        52.11885        -1.79103
H         59.47471        54.22631        -2.13454
H         60.67205        56.41895        -2.62511
H         61.76861        58.76093        -2.88346
H         62.76650        60.86341        -2.85951
H         63.88328        62.85771        -2.57302
H         65.13123        64.77978        -1.95616
H         66.40866        66.57154        -0.97791
H         67.78449        68.71242        -0.62788
H         69.12618        70.74025        -0.28814
H         69.18640        73.18912         0.06039
