         410
 CSIRO Nanostructure Databank - Neutral Graphene Oxide Data Set
C         27.86817        27.33802         0.03559
C         27.82986        28.75099         0.08518
C         26.65718        29.47895        -0.16787
C         27.85871        31.62793        -0.07618
C         26.65309        30.87066        -0.18517
C         27.86056        33.06722        -0.19531
C         26.67213        33.80331        -0.45658
C         27.84722        35.94344        -0.27549
C         26.66835        35.17757        -0.53582
C         27.83698        37.36641        -0.27550
C         26.65284        38.13674        -0.51008
C         27.93899        40.25649        -0.88260
C         26.66087        39.48940        -0.69161
C         27.90951        41.74922        -0.56835
C         26.74225        42.43029        -0.24615
C         27.47552        44.79886        -0.32412
C         26.60497        43.81449         0.10587
C         27.73884        46.12373         0.17237
C         30.32614        27.29169         0.28163
C         29.04852        26.63568         0.17502
C         30.34325        28.73386         0.34259
C         29.05236        29.48888         0.55184
C         30.32286        31.62010         0.02477
C         29.08361        30.93754         0.11936
C         30.34331        33.07241        -0.02994
C         29.07999        33.79742        -0.03146
C         30.28795        35.95219         0.28165
C         29.05292        35.21011        -0.00829
C         30.34475        37.39714         0.08412
C         29.03874        38.13375         0.22092
C         30.32958        40.22050        -0.09688
C         29.12316        39.55808        -0.24589
C         30.38193        41.65996        -0.20979
C         29.21029        42.38259        -0.51352
C         30.34405        44.55411        -0.06359
C         29.33313        43.80246        -0.63493
C         30.27560        45.99485         0.05041
C         28.99947        46.67905         0.15148
C         32.76784        24.41286         0.27218
C         31.59270        25.11570         0.25679
C         32.81981        27.25513         0.28868
C         31.52751        26.54913         0.18735
C         32.82793        28.77587         0.41407
C         31.53387        29.46917         0.30744
C         32.80067        31.53921        -0.27343
C         31.53661        30.88084         0.08812
C         32.80241        33.05106        -0.40801
C         31.55581        33.75604        -0.09246
C         32.82750        35.96101        -0.13434
C         31.62860        35.18933         0.20757
C         32.82645        37.35064        -0.07692
C         31.56371        38.06400         0.06577
C         32.78384        40.21062         0.13939
C         31.57163        39.50598         0.08546
C         32.77151        41.64312         0.32194
C         31.58854        42.35176         0.14591
C         32.72813        44.55880         0.89357
C         31.50281        43.80206         0.46338
C         32.72426        46.08703         0.87524
C         31.48240        46.71043         0.24376
C         32.77359        48.76658        -0.01296
C         31.56473        48.10916         0.00776
C         35.45071        23.22957         1.07884
C         35.33315        24.29706         0.15020
C         34.05197        25.01085        -0.12571
C         35.31372        27.35055        -0.12495
C         34.05691        26.57929        -0.21137
C         35.33984        28.75358         0.34932
C         34.08699        29.52050         0.21057
C         35.33650        31.63693        -0.14129
C         34.10251        30.87456        -0.03578
C         35.30622        33.08290        -0.30281
C         34.09216        33.76436        -0.33644
C         35.35196        35.98606        -0.55795
C         34.03711        35.21948        -0.53166
C         35.32931        37.43520        -0.30088
C         34.06097        38.11771        -0.19789
C         35.25478        40.30779        -0.18908
C         34.02539        39.51100        -0.03043
C         35.30311        41.69831         0.27438
C         34.03833        42.32510         0.68420
C         35.29170        44.55676         0.64278
C         34.04173        43.82768         0.92745
C         35.26372        45.97640         0.49096
C         34.03039        46.70710         0.42197
C         35.28350        48.78581        -0.03261
C         34.02989        48.07629         0.12947
C         35.32804        50.15678        -0.38716
C         37.89583        23.18446         0.80255
C         36.68313        22.63970         1.31250
C         37.83370        24.39069         0.03833
C         36.53165        24.74979        -0.41097
C         37.77838        27.43774        -0.52395
C         36.47877        26.86025        -0.66763
C         37.85410        28.80266        -0.28779
C         36.63860        29.52278         0.14293
C         37.81324        31.67365        -0.21537
C         36.57358        30.97666        -0.08469
C         37.80929        33.10634        -0.21576
C         36.56352        33.81943        -0.29186
C         37.80501        35.95690        -0.15644
C         36.58914        35.22713        -0.32757
C         37.79910        37.38360        -0.09741
C         36.55135        38.09636        -0.18343
C         37.81615        40.28273         0.10014
C         36.59182        39.56027        -0.25867
C         37.77739        41.68014         0.26916
C         36.50800        42.38923         0.36645
C         37.73895        44.55354         0.52896
C         36.50290        43.83584         0.53999
C         37.71562        45.96149         0.56420
C         36.50398        46.68214         0.43678
C         37.72675        48.85407         0.22721
C         36.50941        48.11563         0.22629
C         37.75586        50.21975        -0.13598
C         36.52380        50.84140        -0.46428
C         40.43022        20.46477         1.42248
C         39.28665        21.19336         1.46974
C         40.31634        23.21681         0.48579
C         39.17354        22.53687         0.92738
C         40.27330        24.58369         0.02664
C         39.01767        25.16311        -0.26516
C         40.28882        27.36341        -0.82285
C         38.97837        26.58297        -0.76108
C         40.29127        28.83768        -0.64741
C         39.07895        29.53320        -0.42465
C         40.27973        31.67354        -0.34889
C         39.04945        30.96130        -0.30499
C         40.27996        33.09336        -0.19457
C         39.03320        33.81079        -0.14006
C         40.25225        35.96337         0.06579
C         39.04213        35.24669        -0.06487
C         40.25248        37.37649         0.11140
C         39.02162        38.10303         0.05165
C         40.26325        40.23362         0.36174
C         39.03524        39.54121         0.18380
C         40.25434        41.68175         0.42367
C         39.01115        42.39531         0.41830
C         40.22398        44.51954         0.43246
C         39.00326        43.82160         0.49645
C         40.20310        45.99909         0.33089
C         38.98872        46.68320         0.94237
C         40.25957        48.94059         0.49384
C         38.96567        48.19691         0.69914
C         40.24512        50.32057        -0.01982
C         39.01630        50.96805        -0.23404
C         40.23355        53.02735        -0.73970
C         39.04283        52.34573        -0.59814
C         42.96566        20.41241         0.97928
C         41.63084        20.98861         0.76106
C         42.86072        23.19072         0.39075
C         41.57333        22.45645         0.35377
C         42.81679        24.67976         0.13854
C         41.51791        25.31836        -0.16301
C         42.78709        27.39843        -0.62299
C         41.54839        26.65818        -0.51950
C         42.76735        28.81355        -0.76519
C         41.52222        29.53255        -0.66183
C         42.72176        31.69201        -0.54891
C         41.51346        30.96888        -0.51620
C         42.72356        33.09549        -0.30582
C         41.50540        33.78742        -0.12041
C         42.77616        35.97667         0.01671
C         41.52423        35.21354         0.36733
C         42.76183        37.37124         0.11063
C         41.49808        38.09205         0.22784
C         42.76978        40.18396         0.56589
C         41.48564        39.48301         0.37118
C         42.74636        41.68450         0.58774
C         41.46938        42.41579         0.43469
C         42.70693        44.58877         0.34995
C         41.46550        43.83291         0.36887
C         42.76066        45.97198         0.35565
C         41.50523        46.74006         0.27535
C         42.71772        48.89755         0.28033
C         41.53674        48.20907         0.42968
C         42.74044        50.32115         0.02103
C         41.48955        50.99837        -0.17974
C         42.71961        53.05964        -0.69388
C         41.47942        52.37484        -0.54556
C         44.09010        21.05343         0.52936
C         45.22416        23.11252        -0.38406
C         44.09350        22.43394         0.13832
C         45.21388        24.55410        -0.57001
C         44.05129        25.31301        -0.34912
C         45.26325        27.39986        -0.89781
C         44.03290        26.70547        -0.64263
C         45.22568        28.82624        -0.98634
C         44.00651        29.51146        -0.93555
C         45.24204        31.75518        -0.93751
C         43.95862        30.99330        -0.97804
C         45.20751        33.01047        -0.08190
C         43.96242        33.83014        -0.23558
C         45.26792        35.92454        -0.23183
C         43.99577        35.22370        -0.13539
C         45.22660        37.39934        -0.36888
C         43.99335        38.11870         0.01341
C         45.28202        40.23237         0.26502
C         44.03972        39.49523         0.22226
C         45.30278        41.64789         0.47919
C         44.02423        42.38136         0.27673
C         45.21851        44.58246         0.69105
C         43.99209        43.86418         0.24572
C         45.24076        46.04929         0.51560
C         44.01773        46.69830         0.42837
C         45.30347        48.92623         0.31807
C         43.98531        48.16920         0.50240
C         45.23323        50.30519        -0.18809
C         43.96505        51.00511        -0.20956
C         43.91339        52.39533        -0.54015
C         47.33002        22.98540        -1.59569
C         46.33592        22.36498        -0.86436
C         47.32680        24.38654        -1.72675
C         46.37659        25.22133        -1.11063
C         47.75547        27.37245        -1.03512
C         46.48363        26.66933        -1.08748
C         47.75358        28.77309        -0.83083
C         46.52610        29.52267        -1.34328
C         47.75945        31.66683        -0.40776
C         46.55698        31.01730        -1.01139
C         47.65910        33.08520         0.02099
C         46.49106        33.79036        -0.11537
C         47.78412        35.90791        -0.29237
C         46.46813        35.23266        -0.17984
C         47.82349        37.42199        -0.34115
C         46.53332        38.17503        -0.35757
C         47.75304        40.23549         0.34493
C         46.53375        39.56741         0.13123
C         47.76783        41.66070         0.57440
C         46.50211        42.34806         0.61259
C         47.75658        44.59814         0.89725
C         46.47837        43.80972         0.90172
C         47.72446        46.01055         0.49318
C         46.51914        46.72724         0.41573
C         47.71637        48.79379        -0.26672
C         46.53285        48.13946         0.14466
C         47.62795        50.14697        -0.68041
C         46.42209        50.85448        -0.68466
C         50.51235        24.81498        -1.73357
C         49.29067        25.49285        -1.75989
C         50.20158        27.28753        -0.44699
C         49.06180        26.69353        -1.05567
C         50.07263        28.65129         0.09085
C         48.90170        29.45661        -0.31481
C         50.15450        31.52124         0.31357
C         48.94921        30.84800        -0.06514
C         50.16115        32.97620         0.59461
C         48.88538        33.78169         0.44633
C         50.18762        35.88920         0.40930
C         48.98238        35.22071         0.21530
C         50.22579        37.35366         0.33331
C         49.03726        38.09887         0.13010
C         50.23364        40.18843         0.47960
C         49.01456        39.50767         0.32058
C         50.28674        41.64323         0.84136
C         48.98346        42.36298         0.64079
C         50.27340        44.52455         0.31336
C         49.04920        43.82306         0.79170
C         50.24752        45.89209         0.09734
C         49.04779        46.75020         0.49732
C         50.12051        48.59108        -0.80696
C         48.97301        48.06515        -0.25549
C         51.57801        25.35914        -1.03161
C         52.66921        27.29052         0.06719
C         51.45575        26.62035        -0.41162
C         52.66062        28.67743         0.29831
C         51.38520        29.39546         0.42910
C         52.63818        31.57409         0.48150
C         51.38847        30.85904         0.39538
C         52.66131        32.99174         0.53654
C         51.42492        33.72928         0.55331
C         52.67162        35.83355         0.84994
C         51.39756        35.12463         0.62281
C         52.69401        37.34889         0.76151
C         51.43727        38.06310         0.47159
C         52.69556        40.19932         0.24706
C         51.45473        39.47963         0.41813
C         52.71427        41.59959         0.12000
C         51.50140        42.35814         0.28510
C         52.70708        44.44625        -0.20427
C         51.48272        43.74729         0.11204
C         52.69460        45.84306        -0.41953
C         51.44000        46.56982        -0.36641
C         51.35174        47.89289        -0.79204
C         55.08889        27.27322         0.37137
C         53.90814        26.59651         0.15386
C         55.10609        28.68901         0.45687
C         53.87575        29.40498         0.43103
C         55.11928        31.52912         0.56217
C         53.87869        30.84174         0.50766
C         55.14310        32.97323         0.56505
C         53.91712        33.69604         0.57533
C         55.15596        35.83815         0.61176
C         53.94146        35.11772         0.65413
C         55.16004        37.29715         0.48020
C         53.96414        38.00024         0.42940
C         55.24540        40.14634        -0.17267
C         53.91342        39.40561         0.00010
C         55.20724        41.62764        -0.15401
C         53.96498        42.30352        -0.11732
C         55.16154        44.43841        -0.44673
C         53.94139        43.72571        -0.25286
C         55.12407        45.84770        -0.64108
C         53.92643        46.52273        -0.64638
C         56.33110        29.40628         0.57209
C         56.33342        30.77803         0.60975
C         56.35532        33.71083         0.56371
C         56.36257        35.09092         0.55899
C         56.40148        38.04391         0.41070
C         56.44519        39.38543         0.19827
C         56.40901        42.36281        -0.28225
C         56.39198        43.73529        -0.43578
O         42.92639        24.13767         1.51367
O         42.83695        40.93182         1.84343
O         44.06469        43.09785        -1.01571
O         49.34215        33.32995         1.77415
O         48.02914        36.62751        -1.55116
O         44.69885        48.72209         1.65268
O         34.64358        35.64349        -1.80322
O         31.78991        44.06941         1.89914
O         41.46765        21.41042        -0.65085
O         39.63268        26.85361        -2.04078
O         40.67757        46.46530        -0.96450
O         45.62228        44.16016         2.04822
O         32.71881        32.18223        -1.59870
O         28.34030        44.44292        -1.38598
O         36.17939        29.09173         1.49069
O         33.90885        25.75239        -1.38397
O         44.51650        31.69710        -2.17850
O         36.45682        25.69046        -1.43980
O         32.96355        27.89708         1.59816
O         39.58853        48.89038         1.83756
O         48.28969        24.94593        -2.57440
O         35.93758        40.08802        -1.46683
O         50.50279        28.83525         1.46769
O         54.51710        39.61200        -1.32832
O         31.00654        35.52503         1.49593
O         47.51259        31.67673        -1.90729
O         45.80121        37.96474        -1.60273
O         52.67227        36.67021         2.06796
O         48.58333        44.35105         2.11441
O         34.11977        42.89246         2.04311
O         49.27470        47.09047         1.90969
H         49.13995        46.25284         2.41679
O         28.20060        40.17671        -2.33728
H         28.96569        40.76104        -2.52796
O         45.13894        32.45407         1.28557
H         45.07511        33.20305         1.91628
O         46.60293        29.42558        -2.79431
H         47.09408        30.22073        -3.10638
O         32.61428        46.49498         2.28002
H         32.04734        45.81765         2.71857
O         50.48814        41.65942         2.31267
H         50.18546        42.53386         2.64341
O         39.11702        46.45801         2.37247
H         39.37298        47.32125         2.77900
O         41.56387        35.10207         1.85055
H         40.75163        34.62552         2.12682
O         28.81965        38.22763         1.69336
H         29.08830        37.36829         2.08615
O         28.90289        29.55604         2.03718
H         29.73974        29.92460         2.39417
H         26.93275        26.78993        -0.15325
H         25.72494        28.93430        -0.38015
H         25.69896        31.38496        -0.35924
H         25.72625        33.27133        -0.62379
H         25.72491        35.68970        -0.76580
H         25.68275        37.61840        -0.55345
H         25.70760        39.99604        -0.90057
H         25.84089        41.81879        -0.07853
H         25.78708        44.08182         0.79138
H         26.91105        46.71686         0.59120
H         29.01516        25.53974         0.11429
H         29.06080        47.72589         0.48760
H         32.74141        23.33642         0.49641
H         30.66177        24.55920         0.43697
H         32.77165        49.84337        -0.22517
H         30.65695        48.67099        -0.25645
H         34.55467        22.82261         1.56794
H         34.40296        50.69875        -0.62172
H         36.72161        21.75085         1.95598
H         36.50045        51.89648        -0.76523
H         40.48558        19.48367         1.91707
H         38.40423        20.75513         1.95619
H         40.22651        54.09292        -1.01080
H         38.10492        52.89249        -0.76057
H         43.04285        19.41202         1.42959
H         42.71226        54.12950        -0.94729
H         45.05289        20.52528         0.59062
H         44.85021        52.95360        -0.66994
H         48.12505        22.40196        -2.07752
H         46.35283        21.27384        -0.74547
H         48.52928        50.66991        -1.02623
H         46.43182        51.88181        -1.07400
H         50.62317        23.87565        -2.28977
H         50.10274        49.57746        -1.29132
H         52.53666        24.82637        -1.03183
H         52.23198        48.40368        -1.20304
H         56.03689        26.72109         0.44243
H         53.93682        25.50299         0.06114
H         56.06790        46.39175        -0.78904
H         53.93243        47.61096        -0.79193
H         57.27694        28.84728         0.61067
H         57.29539        31.30164         0.68182
H         57.31959        33.18667         0.54438
H         57.33019        35.60824         0.52275
H         57.34103        37.52547         0.64645
H         57.39980        39.91749         0.31829
H         57.37020        41.83136        -0.30525
H         57.33118        44.28999        -0.57156
