         204
 CSIRO Nanostructure Databank - Neutral Graphene Oxide Data Set
C        -11.13187         0.69891         0.33356
C         -9.99121         1.43579        -0.31695
C         -8.67016         0.72163        -0.16072
C         -7.46594         1.46152        -0.36891
C         -6.22959         0.70932        -0.79892
C         -4.93714         1.47416        -0.71350
C         -3.72829         0.73472        -0.84223
C         -2.46970         1.43365        -0.89265
C         -1.23901         0.76932        -0.85912
C          0.00143         1.45783        -0.59036
C          1.20022         0.72090        -0.34483
C          2.42233         1.42295        -0.08176
C          3.61832         0.73347         0.23716
C          4.85659         1.42071         0.31714
C          6.08985         0.72135         0.51599
C          7.32011         1.39984         0.39609
C          8.56400         0.66199         0.31534
C          9.77343         1.38103        -0.02019
C         10.96082         0.61829        -0.31820
C         -9.89730         2.89717         0.03102
C         -8.69909         3.58164        -0.05042
C         -7.45246         2.86075        -0.30295
C         -6.21581         3.58911        -0.39177
C         -4.96604         2.88661        -0.57861
C         -3.75200         3.62314        -0.61634
C         -2.50838         2.90624        -0.93122
C         -1.19263         3.65866        -0.76296
C          0.02094         2.87298        -0.50461
C          1.22117         3.56881        -0.24339
C          2.43968         2.85254        -0.10167
C          3.66301         3.56118         0.02936
C          4.88259         2.84412         0.16309
C          6.11992         3.54775         0.17173
C          7.34046         2.82260         0.22136
C          8.57969         3.52721         0.09444
C          9.77911         2.77294        -0.05913
C         -8.64841         5.01118         0.05880
C         -7.45376         5.71495        -0.06473
C         -6.20715         4.99733        -0.25724
C         -4.97726         5.72292        -0.26037
C         -3.73364         5.02293        -0.40353
C         -2.49817         5.74306        -0.23112
C         -1.23298         5.05831        -0.29902
C         -0.02377         5.70152        -0.05975
C          1.22860         5.00351        -0.16808
C          2.44499         5.70153        -0.11089
C          3.67138         4.99269        -0.02769
C          4.91303         5.69298         0.03163
C          6.13043         4.97760         0.10340
C          7.38445         5.68057         0.12908
C          8.57775         4.94607         0.08156
C         -7.42626         7.14544         0.00790
C         -6.23339         7.85295        -0.03124
C         -4.97993         7.14141        -0.12169
C         -3.75771         7.85198        -0.02302
C         -2.53647         7.13373         0.01980
C         -1.32291         7.86384         0.41560
C          0.01563         7.10514         0.38077
C          1.22939         7.88055         0.21650
C          2.45483         7.19661        -0.31799
C          3.72504         7.84585         0.15401
C          4.91163         7.13707         0.14175
C          6.18773         7.83330         0.21976
C          7.36809         7.12058         0.16702
C         -6.19681         9.29482         0.04659
C         -5.01749         9.98014         0.08847
C         -3.74553         9.29825         0.09567
C         -2.54726        10.00184         0.18292
C         -1.28238         9.33539         0.29919
C         -0.06535         9.99369         0.35520
C          1.21034         9.29775         0.34339
C          2.42442         9.99843         0.36491
C          3.70424         9.26540         0.66040
C          4.98934         9.97864         0.31252
C          6.14823         9.29185         0.19731
C        -11.07111        -0.62703         0.58060
C         -9.84392        -1.38633         0.39009
C         -8.65305        -0.65414         0.08934
C         -7.36476        -1.36545         0.22814
C         -6.10925        -0.63811        -0.12544
C         -4.90042        -1.41778        -0.44626
C         -3.74591        -0.70062        -0.82439
C         -2.52815        -1.46213        -1.09403
C         -1.18370        -0.68337        -1.07924
C          0.02185        -1.43174        -0.71710
C          1.20078        -0.71999        -0.38171
C          2.38544        -1.44682        -0.06711
C          3.54306        -0.71891         0.47153
C          4.80982        -1.49186         0.80393
C          6.08476        -0.69753         0.92425
C          7.40944        -1.44044         0.96472
C          8.59534        -0.72944         0.45773
C          9.78085        -1.48494         0.11799
C         10.95072        -0.74358        -0.30901
C         -9.79513        -2.77365         0.58342
C         -8.60605        -3.53604         0.41944
C         -7.34669        -2.83607         0.17351
C         -6.17884        -3.51376        -0.10041
C         -4.92809        -2.82730        -0.36635
C         -3.71340        -3.57425        -0.52879
C         -2.49521        -2.89622        -0.77381
C         -1.24817        -3.57491        -0.71269
C         -0.00399        -2.84928        -0.66890
C          1.21998        -3.55904        -0.45021
C          2.42762        -2.84848        -0.16597
C          3.67943        -3.57358         0.01143
C          4.85228        -2.90617         0.39610
C          6.11042        -3.66053         0.56486
C          7.38657        -2.95333         0.96172
C          8.73685        -3.67600         0.88751
C          9.82394        -2.85713         0.24381
C         -8.58001        -4.93038         0.58100
C         -7.39982        -5.68046         0.35141
C         -6.24396        -4.99774        -0.34758
C         -4.92389        -5.70357        -0.16996
C         -3.71336        -5.00838        -0.38057
C         -2.46019        -5.71390        -0.40884
C         -1.23726        -4.99390        -0.53395
C          0.00158        -5.70127        -0.49314
C          1.22967        -4.98025        -0.46286
C          2.47853        -5.68477        -0.43825
C          3.69732        -4.98860        -0.24508
C          4.95952        -5.71874        -0.25930
C          6.16932        -5.03481         0.05855
C          7.44358        -5.71291        -0.03312
C          8.64620        -5.03202         0.24977
C         -7.31962        -7.04962         0.60429
C         -6.11931        -7.78933         0.39150
C         -4.93861        -7.10694        -0.01104
C         -3.70292        -7.85730        -0.26302
C         -2.43253        -7.13238        -0.31602
C         -1.21021        -7.84146        -0.27207
C          0.01242        -7.12171        -0.36746
C          1.26697        -7.81462        -0.36362
C          2.46232        -7.10939        -0.51447
C          3.72215        -7.86020        -0.84245
C          4.98106        -7.07894        -0.58719
C          6.26470        -7.82959        -0.81914
C          7.48184        -7.06372        -0.42260
C         -6.03459        -9.17216         0.79486
C         -4.87465        -9.89086         0.76098
C         -3.66294        -9.36743         0.12176
C         -2.34174        -9.94813         0.35743
C         -1.17943        -9.26480         0.03825
C          0.10630        -9.91231         0.14156
C          1.28824        -9.24435        -0.10109
C          2.57948        -9.88394         0.07202
C          3.75118        -9.23030        -0.18505
C          5.04576        -9.83650         0.06727
C          6.21158        -9.20912        -0.19870
O          3.84936        -1.15141         1.85411
O         -1.78612         3.46331        -2.09169
O         -0.71299         7.35048         1.63919
O         -3.85921        -8.91430        -1.25938
O         -1.81879        -1.11072        -2.32298
O         -6.50427        -0.73205         1.27245
O        -10.30098         1.41952        -1.76760
H         -9.51314         1.77500        -2.23205
O          9.16466        -3.91360         2.26920
H          8.33835        -4.06142         2.78615
O          6.58279        -3.52311         2.02581
O          6.82470        -0.88532         2.17856
O          2.42188         7.40264        -1.79311
H          3.19723         6.93213        -2.16786
O          3.72069         9.15192         2.14143
H          4.52855         8.64750         2.37925
O         -6.54067        -5.12589        -1.79083
H         -6.55622        -6.08454        -2.00010
O          3.66192        -8.10875        -2.29285
H          4.57738        -8.37261        -2.56702
O         -6.43309         0.39208        -2.22196
H         -6.22686         1.19541        -2.74467
O          6.38137        -8.06827        -2.29874
H          6.58925        -7.20130        -2.70964
H         11.85797        -1.30910        -0.56674
H         11.87553         1.16373        -0.59372
H         10.72281         3.30470        -0.25347
H          9.53948         5.47942         0.03991
H          8.32914         7.65741         0.16336
H          7.09754         9.82819         0.04405
H          4.99166        11.07907         0.28946
H          2.41910        11.09719         0.43205
H         -0.04803        11.09417         0.34021
H         -2.56772        11.10221         0.19637
H         -5.02008        11.07847         0.15029
H         -7.15247         9.83885         0.07583
H         -8.37837         7.68705         0.11442
H         -9.58694         5.56100         0.22559
H        -10.83417         3.46274         0.15288
H        -12.06618         1.25359         0.50819
H        -11.94711        -1.15833         0.98331
H        -10.72646        -3.30651         0.83010
H         -9.48983        -5.45229         0.91644
H         -8.19443        -7.57349         1.02002
H         -6.93164        -9.62169         1.24711
H         -4.82803       -10.88201         1.23658
H         -2.27831       -10.96132         0.78300
H          0.12974       -10.97974         0.40901
H          2.60000       -10.91255         0.46638
H          5.05631       -10.84622         0.50857
H          7.16874        -9.70848         0.01397
H          8.45560        -7.56980        -0.50135
H          9.58907        -5.59400         0.16564
H         10.75683        -3.38388        -0.00863
