         349
 CSIRO Nanostructure Databank - Neutral Graphene Oxide Data Set
C          1.18312         3.39154         1.30505
C          0.12082         4.00759         0.66111
C          1.45127         5.99781         0.06249
C          0.16191         5.33068         0.19929
C          1.66023         7.43961        -0.43188
C          0.37588         8.19748        -0.67320
C          1.69455        10.28294        -0.70899
C          0.39825         9.52033        -0.86806
C          1.49212        11.78364        -0.66764
C          0.65832        12.40311        -1.54071
C          1.34702        14.65998        -0.90407
C          0.51544        13.84061        -1.60984
C          1.34442        16.12190        -1.01024
C          0.15491        16.83327        -1.29397
C          1.36731        18.95612        -1.22063
C          0.16420        18.21364        -1.35990
C          1.35414        20.39426        -1.23572
C          0.17149        21.13354        -1.09448
C          1.37356        23.28708        -1.22997
C          0.17568        22.52037        -1.12741
C          1.30230        24.70720        -1.10138
C          0.08872        25.45946        -1.09225
C          1.22361        27.59356        -0.56713
C          0.05140        26.83258        -0.99554
C          1.29752        29.06119        -0.66640
C          3.65147         3.38115         1.65166
C          2.38393         4.18143         1.72618
C          3.78688         6.19924         1.13976
C          2.59537         5.37795         0.82083
C          3.69613         7.64553         1.06642
C          2.63670         8.24719         0.44405
C          3.62519        10.54850         0.89434
C          2.38079         9.73799         0.58564
C          3.61740        11.90048         0.68863
C          2.28272        12.57669         0.34871
C          3.67136        14.77633         0.09544
C          2.37644        14.05240        -0.02281
C          3.84674        16.09679        -0.65770
C          2.54205        16.84452        -0.83119
C          3.86312        18.96408        -0.94726
C          2.59037        18.24711        -1.01252
C          3.91702        20.36172        -1.44058
C          2.60780        21.12826        -1.48351
C          3.88418        23.26507        -1.22683
C          2.63500        22.60153        -1.34886
C          3.88960        24.74084        -1.24212
C          2.55150        25.46959        -1.16994
C          3.81140        27.61045        -0.71516
C          2.56730        26.84912        -0.62770
C          3.77012        29.02818        -0.59987
C          2.48587        29.71311        -0.63107
C          6.09523         3.35267         1.59634
C          4.89357         4.04839         1.56032
C          6.17146         6.22838         1.71092
C          4.91876         5.52227         1.52071
C          6.11395         7.69998         1.96323
C          4.78918         8.41023         1.74006
C          6.07096        10.61220         1.59029
C          4.71953         9.93921         1.74947
C          6.06591        11.99951         1.33267
C          4.83794        12.68915         0.88067
C          6.14838        14.77426         0.51440
C          4.87187        14.02336         0.53432
C          6.18530        16.23458         0.19042
C          4.86049        16.96398         0.11871
C          6.24964        19.10499        -0.25723
C          4.99595        18.37220        -0.42896
C          6.34612        20.42267        -0.64314
C          5.25068        21.12026        -1.41072
C          6.32136        23.32220        -0.74591
C          5.12422        22.59813        -1.04751
C          6.29809        24.77710        -0.65411
C          5.09537        25.47973        -0.84542
C          6.25887        27.63387        -0.55399
C          5.04539        26.90611        -0.75683
C          6.22516        29.08775        -0.49847
C          4.96840        29.74880        -0.54604
C          8.44109         3.50192         0.79020
C          7.42331         4.02026         1.78491
C          8.61821         6.27913         1.78672
C          7.34704         5.53846         1.76035
C          8.59579         7.77048         1.89199
C          7.39186         8.47813         2.02255
C          8.33180        10.79431         2.43697
C          7.27088         9.95189         2.02170
C          8.38606        12.19483         2.17505
C          7.24285        12.76051         1.56747
C          8.55496        14.96442         1.38644
C          7.25592        14.20213         1.32151
C          8.64152        16.25068         0.64453
C          7.39898        17.03085         0.46262
C          8.71367        19.08906         0.33505
C          7.43849        18.38457         0.23841
C          8.64996        20.60114         0.44667
C          7.67220        21.15660        -0.66400
C          8.75852        23.38145        -0.27113
C          7.55968        22.65409        -0.55197
C          8.74732        24.81849        -0.23670
C          7.50094        25.51588        -0.41786
C          8.67732        27.70868         0.05388
C          7.46319        26.93390        -0.39215
C          8.69047        29.15203        -0.39845
C          7.42392        29.81475        -0.45804
C         10.59564         3.69293        -0.37929
C          9.58480         4.21063         0.49110
C         10.88794         6.36969         0.57209
C          9.79122         5.55147         1.10862
C         10.90737         7.71538         0.90479
C          9.88956         8.39767         1.66626
C         11.19292        10.53607         1.58533
C         10.17517         9.69575         2.12105
C         11.45097        11.84438         1.98227
C          9.59060        13.00329         2.33046
C         11.07449        14.93896         1.54973
C          9.79780        14.24429         1.72504
C         11.14961        16.29060         1.22306
C          9.95710        16.96168         0.64211
C         11.23924        19.07303         0.30846
C          9.89692        18.42612         0.50250
C         11.17555        20.57434         0.23242
C          9.99926        21.26874         0.19201
C         11.22400        23.41664         0.06182
C          9.98863        22.69504        -0.02992
C         11.20525        24.85098         0.03656
C          9.95845        25.54059        -0.07647
C         11.15395        27.67426        -0.27831
C          9.97026        26.97589        -0.16418
C         11.17161        29.09570        -0.78223
C          9.86816        29.81877        -0.60609
C         12.80955         3.85352        -1.51207
C         11.76391         4.41230        -0.72138
C         13.06168         6.49100        -0.62776
C         11.90122         5.77564        -0.26986
C         13.21402         7.86224        -0.12657
C         11.95241         8.52967         0.26636
C         13.21147        10.74703         0.08920
C         12.01897         9.98036         0.50393
C         12.99729        12.17211         0.18601
C         12.28606        12.73893         1.22290
C         13.55381        15.02529         1.12930
C         12.39860        14.18931         1.70788
C         13.58540        16.43667         1.61647
C         12.38356        17.07047         1.40112
C         13.63972        19.18003         0.94209
C         12.29311        18.58718         1.31890
C         13.71782        20.49490         0.25786
C         12.45308        21.24563        -0.21061
C         13.67581        23.45453         0.22793
C         12.46078        22.73078         0.10877
C         13.64971        24.88772         0.30966
C         12.41336        25.57713         0.14623
C         13.57145        27.76103         0.15311
C         12.40946        27.01502        -0.01715
C         13.57569        29.19819        -0.06277
C         12.39473        29.86104        -0.37279
C         15.03217         4.00315        -2.63444
C         13.96108         4.58181        -1.87543
C         15.20589         6.76035        -1.81986
C         14.08950         5.94657        -1.42767
C         15.42776         8.06385        -1.33658
C         14.43075         8.68388        -0.43777
C         15.60671        10.94689        -0.83819
C         14.36051        10.17410        -0.38139
C         15.85303        12.25860        -0.07991
C         14.88452        13.18543        -0.07042
C         16.14059        15.08920         0.94711
C         14.84016        14.51415         0.55299
C         16.24138        16.38781         1.41233
C         14.90498        17.14749         1.91606
C         15.91672        19.44614         1.65223
C         14.78774        18.59456         1.42490
C         16.10972        20.69831         1.16346
C         15.00698        21.30217         0.39400
C         16.08423        23.51294         0.66850
C         14.93658        22.78469         0.36926
C         16.05421        24.93719         0.71222
C         14.85437        25.62193         0.52287
C         16.06906        27.84120         0.37725
C         14.79310        27.12035         0.75462
C         16.04998        29.20265         0.08307
C         14.82637        29.89241        -0.03988
C         17.24177         4.19428        -3.75367
C         16.12408         4.75544        -3.06201
C         17.45728         6.99515        -3.04758
C         16.14561         6.20661        -2.79533
C         17.67826         8.24429        -2.30119
C         16.63085         8.78854        -1.56409
C         18.11420        10.79291        -0.96845
C         16.83441        10.01909        -0.70342
C         18.29932        12.02416        -0.34675
C         17.18750        12.60495         0.54190
C         18.66054        14.81559         0.77266
C         17.30350        14.14301         0.87678
C         18.69887        16.28531         0.90066
C         17.60575        16.97217         1.44868
C         18.82478        19.18678         1.24232
C         17.83317        18.36197         1.76972
C         18.71951        20.63868         1.10706
C         17.42357        21.39274         1.33891
C         18.60237        23.57643         0.65423
C         17.37146        22.84700         1.01051
C         18.60657        24.94156         0.68963
C         17.33010        25.67177         0.90486
C         18.61911        27.76605         0.13213
C         17.33635        27.15124         0.66762
C         18.58829        29.26463         0.30841
C         17.33607        29.98104        -0.14595
C         18.42326         4.89165        -3.95520
C         19.87567         6.85830        -3.45631
C         18.61753         6.22757        -3.51144
C         20.03785         8.14420        -2.94035
C         18.97559         8.86719        -2.33098
C         20.37082        10.90458        -1.94497
C         19.15413        10.16903        -1.74908
C         20.60272        12.09541        -1.32724
C         19.62962        12.66601        -0.38491
C         20.95564        14.90809        -0.29840
C         19.83122        14.06935         0.18096
C         21.03275        16.22506        -0.04434
C         20.00204        16.94962         0.73463
C         21.12091        19.28135         0.21093
C         20.07162        18.49441         0.86018
C         20.98614        20.62829         0.13202
C         19.81265        21.32947         0.59684
C         21.04882        23.53973         0.90458
C         19.85448        22.82100         0.30874
C         21.04597        24.88492         1.03694
C         19.86089        25.68574         0.74187
C         21.00168        27.88703         0.98868
C         19.86042        27.07479         0.66843
C         20.91555        29.25133         1.03568
C         19.69069        29.94198         0.72188
O          5.15578         7.93077         3.07325
O         16.85635        18.95948         2.56934
O         13.86379        15.26845        -0.28365
O         17.39085        26.61935         2.04191
O          3.25725        25.32699        -2.44314
O         20.54435        17.59842         1.93114
O         18.17390        14.26565         2.04433
O         11.32223         9.45843        -0.70320
O         17.43654        22.37404         2.43063
O          3.25688        20.57954        -2.72685
O         14.27996         8.02863         0.87598
O         16.33668         7.03191        -3.98608
O          9.38089        10.20593         3.16252
O          2.45614         5.08035        -0.59498
O          9.67239         5.61491         2.57377
O         13.68533        12.91650        -0.76684
O         10.67811        12.39530         3.01545
O          8.17113        20.91965         1.69458
O          9.47678        16.20743        -0.55142
O         14.71670        20.54447        -0.83042
O          1.86177        27.01950         0.63415
O          2.65739        14.88532         1.17110
O          7.59843        15.02076         2.49639
O          6.49089        15.22844        -0.84352
O         20.22971        12.91820         0.97801
O         12.75198        14.11715         3.10822
H         12.01819        13.65714         3.58000
O         12.42961        21.20117        -1.67146
H         13.36431        21.06338        -1.96003
O          1.45400         9.84757         1.69133
H          1.37872        10.80860         1.92584
O          4.38791        17.11830         1.48219
H          3.61842        16.52681         1.63971
O          8.55353        27.77466         1.52225
H          7.69482        28.20375         1.72450
O         20.01613        22.91236        -1.15132
H         20.09522        23.86351        -1.37805
O         11.73654        18.60642        -0.97390
H         11.20310        19.02683        -1.68184
O          1.50168        12.54737         1.58909
H          1.86079        13.26796         2.15706
O          4.32384        10.33078         3.10210
H          4.62576         9.60629         3.70175
O          2.30906         7.33399        -1.73820
H          2.77610         6.45990        -1.74223
O         16.89383         9.51214         0.64660
H         17.07938        10.26449         1.26528
O         17.26228        11.93034         1.82485
H         18.00782        12.35272         2.31706
O         17.24437        31.27932         0.44325
H         17.08023        31.17035         1.40229
O         11.95116        19.13319         2.61031
H         12.51945        18.71223         3.28950
O         18.57488        27.50374        -1.31091
H         19.36938        27.91663        -1.71075
O          7.89637         3.62879         3.11505
H          8.70939         4.16685         3.28591
O          5.73539        21.15617        -2.79965
H          4.92561        21.17223        -3.36764
O          2.17638         4.69754         3.08284
H          2.34260         3.97036         3.71766
O          4.31535        15.78143        -1.98115
H          4.59333        16.61025        -2.42297
O         11.32702        28.96572        -2.26038
H         12.16408        28.47900        -2.42072
O          8.32020        20.82649        -1.91755
H          7.64489        20.95696        -2.62680
O         14.67544        27.28621         2.21465
H         15.54164        26.99491         2.59312
O         15.45374        11.25591        -2.23865
H         14.68319        11.86116        -2.32469
O         15.02095        17.15502         3.35199
H         15.80933        17.70126         3.58197
O          2.56985        10.04478        -1.83431
H          2.56743         9.07287        -2.02791
H          1.06522         2.36586         1.68599
H         -0.82383         3.45158         0.55617
H         -0.76706         5.81999        -0.12116
H         -0.56573         7.64148        -0.78730
H         -0.53322        10.06292        -1.09165
H          0.08249        11.80401        -2.26121
H         -0.22221        14.26154        -2.30742
H         -0.78716        16.28425        -1.43026
H         -0.77807        18.74052        -1.56128
H         -0.78485        20.61611        -0.94009
H         -0.78260        23.04138        -1.00785
H         -0.85735        24.93622        -1.29190
H         -0.88355        27.37186        -1.20542
H          0.35975        29.62385        -0.78779
H          3.61711         2.28313         1.58509
H          2.50308        30.81234        -0.67953
H          6.07946         2.25231         1.62806
H          4.94148        30.84761        -0.49853
H          8.29946         2.49589         0.36653
H          7.39432        30.90949        -0.56874
H         10.46078         2.67555        -0.77711
H          9.84731        30.89407        -0.84590
H         12.71361         2.80994        -1.84864
H         12.41641        30.94553        -0.56216
H         14.98884         2.93040        -2.87759
H         14.84232        30.97703        -0.21924
H         17.18797         3.13849        -4.05829
H         17.43135        30.14588        -1.25801
H         19.27800         4.36632        -4.40748
H         20.75788         6.31969        -3.83301
H         21.04842         8.57461        -2.94994
H         21.14525        10.49895        -2.61037
H         21.56806        12.59828        -1.47111
H         21.78774        14.41397        -0.81826
H         21.92672        16.78071        -0.36096
H         22.03094        18.78746        -0.15508
H         21.77887        21.22500        -0.34077
H         21.95938        22.96547         1.13051
H         21.95621        25.39520         1.38407
H         21.94638        27.39860         1.26588
H         21.79236        29.84514         1.32848
H         19.65484        31.03784         0.80949
