         664
 CSIRO Nanostructure Databank - Neutral Graphene Oxide Data Set
C          6.28690        31.71902         1.69416
C          6.23645        33.05731         1.53193
C          8.34795        27.42143         0.31495
C          8.49271        28.87246         0.71838
C          7.46351        29.53735         1.30991
C          8.69242        31.70117         1.02441
C          7.59845        30.96648         1.74932
C          8.77549        33.18091         1.27308
C          7.42134        33.86157         1.29010
C          8.52316        36.00569         0.77351
C          7.36139        35.21655         1.16025
C          8.43023        37.35733         0.63760
C         10.91808        23.16874         0.64878
C         10.91305        24.58713         0.50437
C          9.69744        25.30364         0.47728
C         10.86269        27.39593         0.04521
C          9.67089        26.69305         0.30418
C         10.87004        28.85014        -0.02919
C          9.71537        29.56531         0.37661
C         10.88070        31.69548        -0.12573
C          9.74757        31.00447         0.42160
C         10.65920        33.13361        -0.53477
C          9.75861        33.91037         0.39148
C         10.83188        36.03739        -0.23709
C          9.70605        35.27247         0.30131
C         10.79176        37.41548        -0.19537
C          9.52314        38.20241         0.04995
C         10.92675        40.21036         0.76085
C          9.73965        39.47479         0.83628
C         11.04154        41.52149         1.24473
C         13.33230        18.87963         0.54462
C         13.27536        20.27026         0.51426
C         12.10381        21.03328         0.73608
C         13.38158        23.22404         1.02541
C         12.10747        22.44470         0.73071
C         13.40182        24.62017         0.40333
C         12.14608        25.29401         0.29504
C         13.30445        27.36855        -0.33843
C         12.10736        26.68506        -0.01914
C         13.22761        28.77060        -0.90500
C         12.03907        29.54531        -0.39816
C         13.24184        31.66672        -0.88734
C         12.04110        30.97480        -0.49525
C         13.19908        33.10059        -1.21784
C         11.92943        33.88733        -0.94386
C         13.24315        36.02657        -0.85500
C         12.02498        35.33920        -0.68274
C         13.27784        37.45572        -0.70036
C         12.00471        38.18096        -0.49375
C         13.42650        40.16615         0.24918
C         12.07398        39.59475         0.03345
C         13.53877        41.54200         0.81162
C         12.34231        42.26636         1.44121
C         13.39808        44.48234         0.80083
C         12.29343        43.75259         1.14921
C         13.42829        45.92106         0.74769
C         15.72353        14.56287         0.15712
C         15.65011        15.95797        -0.39839
C         14.52131        16.75734         0.23100
C         15.66127        18.80049        -0.56547
C         14.48768        18.12117         0.14229
C         15.71534        20.30745        -0.30937
C         14.49531        21.03442         0.14676
C         15.91741        23.14376         0.41048
C         14.64442        22.42207         0.70529
C         15.94263        24.66927         0.49252
C         14.58914        25.30541         0.15416
C         15.74345        27.42440        -0.51758
C         14.54683        26.69251        -0.25403
C         15.73442        28.83762        -0.72464
C         14.51430        29.54523        -0.78190
C         15.72489        31.68869        -0.94233
C         14.49885        30.97089        -0.87395
C         15.70011        33.18518        -0.75664
C         14.51400        33.83645        -1.47254
C         15.70282        35.97474        -1.07579
C         14.49005        35.32087        -1.11421
C         15.75032        37.42335        -0.83359
C         14.47823        38.17165        -0.76477
C         15.76928        40.28230        -0.64242
C         14.56119        39.57312        -0.50267
C         15.90469        41.62288        -0.21342
C         14.65995        42.32396         0.20804
C         15.87675        44.53986         0.14807
C         14.60898        43.80195         0.26538
C         15.84849        45.91268         0.18202
C         14.58645        46.61269         0.42080
C         15.77110        48.75384         0.15965
C         14.60998        48.04651         0.38070
C         15.68041        50.25431         0.03409
C         18.15901        10.47907         1.25164
C         18.11795        11.92104         1.19960
C         16.93454        12.59113         0.95452
C         18.14711        14.72875         0.53563
C         16.88334        13.99564         0.61240
C         18.20431        15.98183         0.00182
C         16.96680        16.71291        -0.27135
C         18.22567        18.82161         0.10405
C         16.95815        18.07514        -0.27051
C         18.22473        20.27912        -0.30372
C         17.02722        20.99658        -0.22935
C         18.23176        23.09701        -0.56538
C         17.05213        22.41074        -0.21000
C         18.16334        24.55148        -0.72585
C         17.08024        25.26915        -0.32224
C         18.13071        27.40818        -1.19995
C         17.08477        26.77556        -0.32002
C         18.20195        28.88220        -1.06446
C         16.97650        29.56946        -0.89406
C         18.18241        31.67622        -1.33029
C         16.95967        30.99066        -1.02816
C         18.13308        33.12121        -1.64153
C         16.96582        33.89566        -1.20964
C         18.21528        36.00903        -1.53197
C         16.96776        35.26901        -1.30556
C         18.23780        37.42344        -1.48198
C         17.01807        38.17278        -1.08631
C         18.19730        40.39345        -1.45635
C         16.86060        39.64076        -1.47013
C         18.26080        41.78199        -0.91932
C         17.09421        42.36587        -0.37937
C         18.33122        44.57564        -0.32607
C         17.17138        43.76720         0.20048
C         18.28199        45.96572        -0.32210
C         17.06774        46.67368        -0.02962
C         18.26408        48.83770        -0.13601
C         17.02782        48.07848        -0.03547
C         18.24570        50.25856         0.07019
C         16.98990        50.97594         0.23098
C         18.16208        53.10662         0.60529
C         16.96232        52.31826         0.51561
C         18.17270        54.43353         0.95899
C         20.78368         6.32044         1.15382
C         20.67316         7.75319         1.31181
C         19.44058         8.38326         1.34760
C         20.52971        10.56482         2.01436
C         19.33425         9.80381         1.48903
C         20.55587        12.00740         1.57284
C         19.37993        12.64464         1.27779
C         20.66744        14.77732         0.88380
C         19.34181        14.15119         1.23884
C         20.76370        15.99667         0.24562
C         19.51865        16.58416        -0.46445
C         20.45744        18.84246        -0.96054
C         19.43308        18.10130        -0.43512
C         20.65685        20.24690        -0.78753
C         19.43217        20.97853        -0.58283
C         20.68360        23.00405        -1.35880
C         19.41608        22.37027        -0.81166
C         20.63844        24.51093        -1.00311
C         19.32124        25.12768        -1.53642
C         20.63857        27.37093        -1.26676
C         19.34175        26.64861        -1.58184
C         20.64259        28.81631        -1.77390
C         19.38605        29.55694        -1.36449
C         20.67351        31.63286        -1.78180
C         19.37847        30.96622        -1.47906
C         20.71732        33.11610        -1.97429
C         19.41929        33.87187        -1.96808
C         20.68661        36.01065        -1.64396
C         19.44736        35.32569        -1.72441
C         20.67399        37.41362        -1.47003
C         19.46046        38.12133        -1.51259
C         20.76056        40.31257        -1.27185
C         19.48013        39.61053        -1.54455
C         20.75729        41.82047        -1.46213
C         19.49419        42.48779        -0.94401
C         20.77087        44.62332        -0.78271
C         19.52691        43.87608        -0.69494
C         20.76761        46.02223        -0.69328
C         19.45664        46.75077        -0.86429
C         20.72062        48.87225        -0.30559
C         19.48179        48.17972        -0.38483
C         20.70236        50.26804         0.02285
C         19.45787        50.95698         0.13466
C         20.62403        53.04470         0.89857
C         19.44705        52.45872         0.16909
C         20.65109        54.49879         1.08448
C         19.40317        55.19507         1.11936
C         20.61747        57.24994         1.69985
C         19.40019        56.55421         1.43153
C         20.61887        58.62135         2.03546
C         23.23557         3.64018         0.45821
C         22.08086         4.27077         0.76461
C         23.18132         6.56081         0.50447
C         21.97377         5.71386         0.86198
C         23.18057         7.87610         1.24822
C         21.89776         8.52537         1.46354
C         23.04667        10.62658         2.02711
C         21.84393         9.87197         1.79079
C         23.02037        12.01367         2.03773
C         21.80861        12.74488         1.69925
C         22.96904        15.00286         1.86354
C         21.84272        14.10573         1.40756
C         23.17069        16.20194         0.96550
C         22.08381        16.64612         0.17649
C         23.31203        18.76348        -0.30600
C         22.30139        17.81846        -0.58586
C         23.17822        20.17692        -0.63380
C         21.95028        20.88663        -0.80958
C         23.16321        23.09375        -0.95922
C         21.97566        22.33007        -0.92088
C         23.15788        24.51893        -1.19203
C         21.91853        25.23866        -1.35691
C         23.16010        27.38585        -1.82443
C         21.89934        26.59624        -1.57203
C         23.10989        28.73063        -0.94043
C         21.89695        29.55599        -1.32966
C         23.12768        31.72611        -0.97116
C         21.90976        30.90950        -1.35968
C         23.15888        33.13622        -1.54188
C         21.99218        33.84870        -1.74306
C         23.17336        35.99659        -1.69508
C         21.97641        35.29797        -1.73806
C         23.17386        37.47124        -1.55582
C         21.92005        38.10271        -0.96681
C         23.18441        40.31709        -0.79967
C         21.90829        39.61367        -1.09735
C         23.22140        41.79449        -0.87365
C         22.02056        42.49515        -0.97017
C         23.24309        44.62427        -0.78473
C         22.01140        43.90978        -0.83799
C         23.21483        46.05026        -0.71826
C         21.99455        46.74725        -0.65643
C         23.19364        48.91832        -0.36217
C         21.97745        48.20025        -0.48662
C         23.16965        50.31690        -0.00200
C         21.93894        50.95116         0.22225
C         23.16544        53.07690         0.88518
C         21.92694        52.29627         0.82272
C         23.13117        54.43908         1.21930
C         21.87346        55.14757         1.34253
C         23.08757        57.22802         1.91860
C         21.86413        56.54225         1.64596
C         23.06774        58.60251         2.26498
C         21.82082        59.30665         2.32539
C         23.02671        61.33939         2.95884
C         21.82843        60.68493         2.67610
C         24.50922         4.37563         0.14471
C         25.60728         6.41309         1.07483
C         24.48182         5.80139         0.64598
C         25.62341         7.80587         1.50743
C         24.34112         8.48982         1.64177
C         25.58393        10.56004         2.44127
C         24.25370         9.79634         2.42603
C         25.59431        12.03949         2.17143
C         24.30313        12.77475         2.03466
C         25.59630        14.99451         2.11336
C         24.27966        14.26980         2.18700
C         25.62916        16.35499         1.51097
C         24.39469        16.93880         0.99262
C         25.62972        19.04920         0.52327
C         24.42557        18.23340         0.40900
C         25.72609        20.27861        -0.30024
C         24.43261        20.94195        -0.75517
C         25.63532        23.11430        -0.71332
C         24.43989        22.41423        -0.81753
C         25.61004        24.62270        -0.56664
C         24.38696        25.27826        -1.17624
C         25.71584        27.40586        -1.63293
C         24.42120        26.62073        -1.50292
C         25.66304        28.73220        -0.79292
C         24.40472        29.48938        -1.17142
C         25.68834        31.71234        -1.06338
C         24.41222        30.97591        -1.25745
C         25.71998        33.08496        -1.31908
C         24.46921        33.77697        -1.72790
C         25.73542        36.04880        -1.57546
C         24.47415        35.33235        -1.86876
C         25.75218        37.41128        -1.32860
C         24.48104        38.17804        -1.39141
C         25.74909        40.31541        -0.89950
C         24.47677        39.56853        -0.83987
C         25.73859        41.72973        -0.84988
C         24.47806        42.48410        -0.84833
C         25.73856        44.64460        -1.00060
C         24.47133        43.89143        -0.86524
C         25.74478        46.08054        -0.64696
C         24.48023        46.83005        -0.96646
C         25.66216        48.88157        -0.16006
C         24.45868        48.23994        -0.44962
C         25.71833        50.39357        -0.14491
C         24.39272        51.06052         0.16858
C         25.63701        53.18257         0.66100
C         24.38259        52.40040         0.55646
C         25.60606        54.52703         1.24841
C         24.36628        55.16943         1.42837
C         25.56403        57.21802         2.11470
C         24.33392        56.53307         1.83144
C         25.51983        58.58396         2.48195
C         24.29618        59.28667         2.55292
C         24.24600        60.66347         2.90243
C         26.81247         8.42665         1.77868
C         28.08990        10.64194         1.87412
C         26.87076         9.84730         2.16522
C         28.13445        11.97633         2.08650
C         26.90410        12.74776         2.41120
C         28.15481        14.90230         1.75757
C         26.91478        14.24482         2.24545
C         28.11696        16.22322         1.35216
C         26.86783        16.95214         1.28337
C         28.19175        19.03541         0.54653
C         26.92450        18.38015         0.93249
C         28.18506        20.39912         0.14652
C         26.94270        21.08903        -0.15417
C         28.14951        23.18157        -0.64628
C         26.88309        22.43635        -0.46232
C         28.15559        24.66702        -0.34363
C         26.91176        25.32936        -0.88055
C         28.17542        27.41962        -1.07339
C         26.94484        26.65478        -1.19009
C         28.15680        28.81772        -0.93051
C         26.93295        29.55326        -0.92401
C         28.12010        31.72883        -0.60821
C         26.88425        30.95327        -0.83205
C         28.12355        33.17976        -0.89791
C         26.96795        33.82906        -1.26137
C         28.24060        36.03244        -1.28497
C         27.02341        35.28017        -1.77291
C         28.20923        37.40561        -1.00992
C         26.96540        38.13881        -1.06699
C         28.19197        40.27103        -0.70287
C         26.96126        39.56775        -0.91150
C         28.19840        41.69447        -0.60247
C         26.98010        42.40791        -0.78039
C         28.26516        44.56990        -0.54277
C         27.03930        43.86548        -0.93804
C         28.21818        46.03837        -0.44550
C         26.91186        46.74767        -0.35310
C         28.08665        48.83179         0.40612
C         26.89852        48.16740        -0.05715
C         28.09970        50.18699         0.72137
C         26.78909        50.92133         0.81028
C         28.11274        53.05163         1.35279
C         26.93866        52.42404         0.70790
C         28.05637        54.40350         1.67886
C         26.83257        55.16214         1.62658
C         26.78930        56.50382         2.04789
C         29.45039        12.71502         2.19702
C         30.59202        14.80361         1.49264
C         29.40366        14.16443         1.75992
C         30.64394        16.19502         1.12855
C         29.34720        16.82649         0.68888
C         30.62955        19.02268         0.60559
C         29.39621        18.33300         0.67054
C         30.62521        20.40723         0.31311
C         29.42480        21.05524        -0.02880
C         30.70749        23.22274        -0.48044
C         29.44648        22.44692        -0.51088
C         30.66635        24.57930        -0.80657
C         29.43763        25.32946        -0.79530
C         30.68031        27.41384        -1.35939
C         29.42540        26.68829        -1.05133
C         30.66981        28.91434        -1.23611
C         29.45692        29.47699        -0.51415
C         30.64689        31.74863        -1.02647
C         29.42238        31.00155        -0.51057
C         30.65953        33.16074        -0.52548
C         29.35571        33.94317        -0.45955
C         30.70798        35.99828        -0.73955
C         29.52030        35.24804        -1.27918
C         30.66885        37.40640        -0.57965
C         29.42571        38.12786        -0.70782
C         30.61071        40.27013        -0.24522
C         29.41564        39.54470        -0.55822
C         30.62246        41.67158        -0.15915
C         29.42528        42.40265        -0.35161
C         30.60214        44.54874         0.24559
C         29.41833        43.85574        -0.23743
C         30.61840        45.90920         0.43364
C         29.45248        46.73229         0.05913
C         30.55816        48.75804         1.03374
C         29.26259        47.99833         0.85734
C         30.51312        50.12974         1.26351
C         29.28822        50.86519         1.18649
C         29.26237        52.23313         1.52849
C         31.82842        16.88310         1.04439
C         33.10202        18.95816         0.67028
C         31.89275        18.30612         0.77167
C         33.19358        20.42508         0.58319
C         31.87738        21.18794         0.38816
C         33.17368        23.15553        -0.37748
C         31.93846        22.53539        -0.21494
C         33.22859        24.49438        -0.98302
C         31.91915        25.24937        -1.19856
C         33.17200        27.40580        -1.10541
C         31.97227        26.71912        -1.24358
C         33.16360        28.85771        -0.96039
C         31.96049        29.59578        -1.00528
C         33.13745        31.68137        -0.53963
C         31.94638        30.99765        -0.81103
C         33.12290        33.11097        -0.25201
C         31.83615        33.81296        -0.31052
C         33.03966        35.92795         0.01606
C         31.85136        35.27821        -0.28853
C         33.11862        37.36728        -0.16897
C         31.85496        38.08986        -0.24163
C         33.09961        40.20761         0.52458
C         31.81212        39.49710         0.12654
C         33.12982        41.67475         0.47439
C         31.92943        42.44591        -0.04694
C         33.05646        44.49822         0.87127
C         31.75321        43.72313         0.76889
C         33.00934        45.89641         1.04560
C         31.80305        46.61539         0.91438
C         31.75540        48.01252         1.11473
C         34.42853        21.11780         0.20016
C         35.65279        23.19558        -0.36243
C         34.42407        22.46512        -0.13185
C         35.68096        24.54330        -0.66178
C         34.46717        25.27827        -0.87739
C         35.65820        27.41750        -0.80432
C         34.43699        26.68393        -0.97218
C         35.61753        28.83368        -0.60944
C         34.37404        29.54587        -0.65724
C         35.56732        31.62357        -0.05474
C         34.36191        30.95237        -0.43308
C         35.62123        33.13008         0.01668
C         34.25777        33.76760         0.14712
C         35.45643        35.90421         0.83413
C         34.13441        35.16901         0.71206
C         35.55565        37.25997         0.72136
C         34.42644        38.08116         0.21305
C         35.55625        40.14656         0.98351
C         34.37915        39.49206         0.56420
C         35.54685        41.64112         1.24809
C         34.27022        42.35341         0.84172
C         34.24985        43.78441         0.94089
C         36.99884        25.24212        -0.90986
C         38.10139        27.46524        -0.64368
C         36.92504        26.74653        -0.74937
C         38.09922        28.89417        -0.48714
C         36.80521        29.54026        -0.32055
C         38.05142        31.47009         0.60701
C         36.74894        30.90844         0.06477
C         37.99875        32.93570         1.17330
C         36.63549        33.63753         1.03629
C         37.91128        35.78764         1.74140
C         36.58801        35.10142         1.36880
C         37.86295        37.28475         1.58415
C         36.76599        37.97903         1.13950
C         36.73038        39.42067         1.18064
C         39.23654        29.67886        -0.58053
C         40.37512        31.95265        -0.29626
C         39.09563        31.18675        -0.49268
C         40.33718        33.22612         0.14487
C         39.12074        33.84313         0.67163
C         39.05749        35.17029         0.93995
O         16.65533        37.84021         0.28787
O         25.09494        12.37027         0.82772
O         27.04068        13.61111         3.56840
O         23.79292        39.76080         0.45874
O         24.86001        14.84928         3.38999
O         24.56769        34.44530        -3.03519
O         15.65370        22.52773         1.75892
O         32.16431        39.69790         1.57243
O         26.47592        44.33520        -2.23849
O         13.88063        40.39294         1.64666
O         30.51092        28.31222        -2.53469
O         24.42450        30.15119        -2.47060
O         36.11198        34.06425         2.31781
O         28.81783        22.69117        -1.84628
O         21.10049        52.31050         2.06396
O         14.19825        43.08283        -0.98707
O         26.40622        10.15525         3.57086
O         25.49344        24.84805         0.85055
O         19.56517        52.93158        -1.27849
O         18.39621        27.08752        -2.61561
O         23.79303        38.14230        -2.69965
O         32.50169        21.10805         1.70726
O         12.27472        33.47346        -2.32315
O         18.85115        40.19805        -2.76743
O         21.45979        18.12427        -1.65309
O         26.14895        19.21935         1.87211
O         26.52369        53.06448        -0.51836
O         18.52198        33.45496        -3.02991
O         14.82737        21.00614        -1.28450
O         20.80533        32.20087        -3.13140
O         34.11039        37.81956        -1.20582
O         28.83083        31.50269         0.72522
O         32.60455        24.58548        -2.31479
O         29.14739        46.77040        -1.35222
O         11.79983        39.35883        -1.38663
O          9.05604        38.65094        -1.27218
H          9.82677        39.10713        -1.68973
O         15.17852        50.57135        -1.28519
H         15.81049        50.21410        -1.94289
O         38.51908        31.65501        -1.74691
H         39.18195        31.52074        -2.45557
O         17.43610        43.55862         1.64101
H         17.59508        44.43954         2.04264
O         29.69164        29.07087         0.86523
H         29.08546        29.60883         1.42513
O         36.16337        33.58921        -1.26540
H         35.68133        33.13050        -1.98551
O         38.20774        35.54178         3.13437
H         38.05569        34.57446         3.28340
O         21.94694        37.79462         0.46058
H         22.60370        38.41397         0.87135
O         20.84790        52.49334        -1.78517
H         20.59612        51.85079        -2.49269
O         38.43351        30.61048         1.70870
H         37.73493        30.67477         2.39441
O         23.97364         9.40697         3.80391
H         24.85212         9.33580         4.25079
O         20.78988        42.05438        -2.90633
H         20.05491        41.51684        -3.29238
O         19.11966        14.54835         2.64465
H         19.91219        14.27163         3.15548
O         19.24242        46.84359        -2.32200
H         19.27999        45.93132        -2.68183
O         29.83118        34.80667        -2.64162
H         29.00077        34.89476        -3.17802
O         24.53481        46.98461        -2.44469
H         24.87363        46.14176        -2.82015
O         26.12304        50.73959        -1.49275
H         25.50128        50.31441        -2.11940
O         19.62648        16.15917        -1.85339
H         20.36894        16.66800        -2.25560
O         27.19598        35.12789        -3.23577
H         26.33443        34.77397        -3.57852
O         25.63941         3.66118         0.65091
H         25.53848         3.57446         1.62053
O         20.66711        28.76116        -3.22788
H         20.53373        29.67175        -3.57243
O         33.64043        35.01637         2.08634
H         34.35511        34.54934         2.58659
O          7.99415        30.92837         3.17106
H          8.44292        31.78917         3.36161
O         23.20904        27.79349        -3.21034
H         22.32589        28.17601        -3.45916
O         20.53126        24.63503         0.44967
H         21.33700        24.24204         0.85127
O         12.99831        28.59518        -2.36333
H         13.81462        28.20537        -2.74307
O         15.42749        18.62003        -1.99496
H         14.85701        19.37411        -2.27905
O         23.03689        28.39770         0.44956
H         22.12192        28.05955         0.64560
O         35.78616        41.87773         2.64771
H         35.03505        41.50020         3.15076
O         18.28850        18.82903         1.57153
H         18.32934        17.89563         1.87278
O         22.45876        15.55391         3.11893
H         23.24966        15.72727         3.68641
O         15.50370        33.43320         0.66624
H         16.21328        32.97427         1.16210
O         38.04139        24.69505        -0.09714
H         37.83116        24.88202         0.84047
O         16.20278        25.03283         1.88447
H         16.11632        24.20780         2.41972
O         20.73934        22.77567        -2.78569
H         19.98458        23.24725        -3.21176
O         13.33881        23.43603         2.46372
H         14.24601        23.27135         2.81003
O         25.91501        27.76029        -3.01317
H         25.04928        28.05397        -3.38811
O         16.35766        39.65178        -2.83008
H         17.13481        39.74195        -3.42940
O         19.08826        24.70251        -2.89884
H         18.55690        25.41749        -3.32752
O         30.49572        12.01888         1.51745
H         30.30286        12.02396         0.55798
O         38.22993        32.83700         2.60475
H         39.10730        32.41413         2.72810
O         30.45453        31.87625        -2.47531
H         30.38603        32.83765        -2.70077
O         12.55274        42.21014         2.89517
H         12.94723        41.32551         3.08101
O         29.13278        34.32142         0.91717
H         29.02821        33.48258         1.42307
O         28.89513        47.51434         2.19746
H         28.77078        48.29865         2.77285
O         20.58496        27.45359         0.20286
H         20.47504        26.52864         0.55031
O         32.25830        42.86856        -1.40047
H         32.33236        42.07424        -1.96899
O         31.39915        43.31664         2.11873
H         31.30087        44.12525         2.66345
O         29.19745        16.46009        -0.73463
H         29.34462        15.49300        -0.80540
O          7.77491        27.36227        -1.00893
H          8.40577        27.77997        -1.63129
O         23.11111        31.89710         0.47830
H         22.28045        32.34855         0.73495
O         20.36414        10.62334         3.47983
H         20.68087         9.77183         3.84943
O         23.03616         6.89442        -0.91690
H         22.81750         6.06823        -1.39672
O         26.29603        50.65794         2.16230
H         26.97032        50.97952         2.79741
O         25.31872        20.19292        -1.69319
O          9.83983        33.00119        -1.74701
H         10.47590        32.90771        -2.49638
O         28.10500        24.77919         1.10638
H         27.12438        24.83906         1.33681
O         15.29894        15.83386        -1.80634
H         15.29548        16.75281        -2.17548
O         17.54870        27.17759         1.01474
H         17.06278        26.61442         1.66783
O         25.65454        28.39471         0.60322
H         24.77539        28.01423         0.84149
O          9.29620        33.31594         2.66126
H          9.22448        34.26405         2.90650
O         14.78664        33.73796        -2.88380
H         13.93168        33.86848        -3.35265
H          5.36223        31.15139         1.87774
H          5.26762        33.58086         1.55340
H          7.62744        26.90366         0.99536
H          6.53575        29.00177         1.56408
H          6.39533        35.73617         1.25536
H          7.48684        37.86336         0.89488
H          9.95841        22.63074         0.60866
H          8.75316        24.76220         0.63654
H          8.86224        39.93130         1.31918
H         10.15489        41.97010         1.71975
H         12.44291        18.31967         0.87320
H         11.13740        20.51003         0.80664
H         11.37134        44.28025         1.43829
H         12.51868        46.48210         1.00984
H         14.80635        13.95589         0.10427
H         13.65829        16.21245         0.64513
H         13.66575        48.59140         0.53006
H         14.92011        50.64842         0.75619
H         17.24914         9.91932         0.98327
H         15.99583        12.01774         0.90500
H         15.99517        52.81457         0.68886
H         17.22142        54.94207         1.17939
H         19.87693         5.70974         1.28919
H         18.52582         7.79713         1.16823
H         18.44724        57.09893         1.50478
H         19.66444        59.16734         2.07678
H         23.26786         2.54168         0.41097
H         21.17437         3.68155         0.97514
H         23.01089        62.40464         3.22934
H         20.87625        61.23254         2.72394
H         24.63038         4.40081        -0.97796
H         26.55570         5.85334         1.09800
H         26.45859        59.11254         2.70576
H         25.18175        61.19548         3.12650
H         27.75878         7.87869         1.65621
H         29.02076        10.10007         1.64439
H         28.95249        54.89709         2.08448
H         27.72251        57.01446         2.32793
H         29.72171        12.70449         3.29001
H         31.53426        14.24616         1.60711
H         31.44116        50.67093         1.50326
H         30.18528        52.69543         1.91007
H         32.77190        16.35783         1.26190
H         34.03666        18.37670         0.69787
H         33.94087        46.44479         1.25448
H         32.68975        48.54017         1.36129
H         35.37756        20.56068         0.21291
H         36.60795        22.66426        -0.23460
H         36.40835        42.11091         0.70231
H         35.19091        44.31443         1.15153
H         37.29141        25.02703        -1.97751
H         39.06153        26.92903        -0.67367
H         38.72161        37.84123         1.98967
H         37.64000        39.95183         1.49706
H         40.21506        29.22239        -0.79613
H         41.32154        31.51357        -0.64866
H         41.25584        33.83377         0.16193
H         39.91114        35.81562         0.67810
