         260
 CSIRO Nanostructure Databank - Neutral Graphene Oxide Data Set
C         30.73307        31.52350         0.69435
C         30.82694        32.63156         1.23975
C         30.58702        35.83009         1.20284
C         30.50811        37.04287         1.46019
C         30.33481        40.25963         1.33356
C         30.28113        41.40930         0.85684
C         33.00469        28.95690        -0.85454
C         31.91956        29.47272        -0.56358
C         33.17684        31.44296         0.29111
C         31.82519        30.62546         0.34181
C         33.18038        32.90460         0.63883
C         31.96086        33.56244         1.29485
C         32.96715        35.91608         1.04601
C         31.82240        35.04012         1.60436
C         32.90026        37.27163         1.24054
C         31.62850        37.96919         1.66577
C         32.74068        40.31983         1.19261
C         31.55919        39.50407         1.59517
C         32.64991        41.69575         0.82410
C         31.33904        42.33606         0.64692
C         32.51447        44.35825         0.38029
C         31.43122        43.70918         0.38970
C         35.74777        27.51911        -1.88905
C         35.63164        28.73869        -1.08118
C         34.38409        29.41323        -0.66918
C         35.43950        31.68536        -0.79081
C         34.37690        30.90679        -0.42048
C         35.22183        33.19035        -1.03896
C         34.07739        33.81486        -0.16087
C         35.19312        36.14524        -0.20504
C         34.00789        35.29105         0.15722
C         35.22769        37.54453         0.28189
C         34.09494        38.12299         1.06414
C         35.14626        40.40605         0.34811
C         34.04339        39.63351         1.09408
C         35.16938        41.81253         0.94362
C         33.85360        42.50505         0.78479
C         35.02799        44.74545         0.81085
C         33.82715        43.90538         0.62378
C         35.25124        46.03362         0.15044
C         38.11640        27.63777        -2.36479
C         36.79873        27.04967        -2.33863
C         38.09366        28.95274        -1.94322
C         36.93241        29.59724        -1.17612
C         37.90599        31.90393        -1.60266
C         36.58056        31.05690        -1.65903
C         37.85614        33.37116        -1.28505
C         36.52429        34.06241        -1.04102
C         37.76206        36.17556        -0.13858
C         36.50875        35.50440        -0.58890
C         37.72286        37.51696         0.30734
C         36.51804        38.22364         0.45980
C         37.77603        40.45999         0.58103
C         36.49900        39.69901         0.38225
C         37.77318        41.99751         0.65643
C         36.44581        42.58350         1.13135
C         37.68596        44.81344         0.77095
C         36.41204        44.09101         1.09978
C         37.67877        46.12644         0.34473
C         36.34705        46.62212         0.15361
C         40.82948        24.95107        -2.51895
C         39.76173        25.55974        -2.75159
C         40.59843        27.52949        -1.64034
C         39.35487        26.84177        -2.18922
C         40.71509        29.02711        -1.81908
C         39.35844        29.74344        -1.92561
C         40.48084        31.84210        -1.00306
C         39.26915        31.20553        -1.60603
C         40.45706        33.33132        -0.88026
C         39.15327        34.12755        -1.00828
C         40.33416        36.22614         0.02829
C         39.07214        35.56373        -0.49365
C         40.21906        37.42488         0.94764
C         38.93016        38.17752         0.89582
C         40.21192        40.40933         1.46631
C         38.93042        39.67711         1.15093
C         40.29124        41.92529         1.44905
C         38.96874        42.66284         1.35661
C         40.27090        44.68996         0.49278
C         38.98427        44.14907         1.13120
C         40.26353        46.20929         0.34235
C         38.91929        46.91901         0.21478
C         39.74836        48.10745        -1.63383
C         38.92059        48.12293        -0.66243
C         43.28109        24.90666        -1.55698
C         42.03922        25.46523        -1.97455
C         42.86235        27.47495        -0.68983
C         41.90995        26.82345        -1.52693
C         42.76162        28.87253        -0.37939
C         41.70232        29.67039        -0.86026
C         42.91643        31.86071        -0.37561
C         41.62286        31.10177        -0.69038
C         42.58390        33.07366         0.54137
C         41.65110        33.99189        -0.23611
C         42.66721        35.96851         1.10879
C         41.61233        35.43798         0.12940
C         42.74520        37.44719         0.93803
C         41.49192        38.15911         1.29156
C         42.79224        40.34052         1.08830
C         41.51166        39.64074         1.49466
C         42.81847        41.83753         0.98264
C         41.60490        42.66509         1.32627
C         42.81434        44.72159         0.24942
C         41.63499        44.21626         1.11952
C         42.71511        45.91125        -0.44498
C         41.52234        46.80954        -0.22240
C         42.03950        47.35659        -2.68458
C         40.96790        47.59228        -1.93205
C         44.08787        25.36661        -0.72776
C         44.88351        27.23091         0.96771
C         43.92068        26.64007        -0.01866
C         44.90594        28.75000         1.18044
C         43.79649        29.52748         0.48682
C         45.17864        31.63794         0.95421
C         44.04601        30.98775         0.21789
C         45.10346        33.09215         1.26353
C         43.83877        33.81215         1.02871
C         45.10064        35.87808         0.31279
C         43.96866        35.27540         0.79169
C         45.01289        37.32560        -0.00655
C         43.82729        38.08355         0.43024
C         44.80884        40.26164        -0.50750
C         43.55695        39.53828         0.01029
C         45.10962        41.64718        -0.00770
C         43.94504        42.50636         0.30506
C         45.36626        44.44228        -0.00941
C         44.03219        43.87783         0.19431
C         45.10096        46.32711        -1.09663
C         43.75823        46.41412        -1.39987
C         43.28844        47.02238        -2.60616
C         47.09243        27.23510         1.95991
C         46.21334        26.68871         1.28834
C         47.29444        28.66098         2.21192
C         46.16060        29.41469         1.62196
C         47.51859        31.62888         1.95334
C         46.20170        30.87846         1.74362
C         47.62778        33.11117         1.61575
C         46.35280        33.97676         1.33904
C         47.76096        35.63935         0.02588
C         46.37285        34.95704         0.12373
C         47.94162        36.73884        -0.75222
C         45.90254        37.97484        -0.82279
C         47.24153        40.11772        -1.33241
C         45.93903        39.44394        -1.04717
C         47.38265        41.48091        -1.22299
C         46.41221        42.27655        -0.42231
C         47.79999        44.46244        -0.85021
C         46.49030        43.75561        -0.41677
C         47.29139        45.52675        -1.82903
C         46.30106        46.26765        -1.87136
C         49.94271        28.69752         2.35125
C         48.62679        29.34358         2.37860
C         50.13955        31.41932         1.84285
C         48.76838        30.75959         1.70008
C         50.30663        32.92862         1.62781
C         48.97889        33.68109         1.31918
C         50.28405        35.67570         0.58552
C         49.04409        34.80350         0.27850
C         50.48208        36.82372        -0.41729
C         49.25145        37.40763        -1.03890
C         50.50938        39.56992        -1.39921
C         49.31678        38.82606        -1.46167
C         50.54295        40.95595        -1.82922
C         48.53505        42.19157        -1.72401
C         50.17715        43.80948        -1.74196
C         48.79751        43.52233        -1.47271
C         51.03987        29.25513         2.20531
C         52.50283        31.39209         1.72267
C         51.29804        30.65814         1.98782
C         52.65379        32.56475         1.34026
C         51.50789        33.31471         0.66653
C         52.60545        35.70602         0.58743
C         51.58902        34.81528         0.63903
C         52.75732        36.98500         0.38927
C         51.72666        37.66055        -0.30230
C         52.74437        39.94643        -0.77526
C         51.71165        38.97665        -0.80094
C         52.75232        41.16307        -1.08617
C         51.62791        41.84371        -1.63308
C         51.26819        43.22516        -1.80315
O         33.08851        33.08584         2.08513
O         50.17266        36.50177        -1.81329
O         46.22548        41.71098         0.93894
O         40.06562        33.99284        -2.11641
O         43.44100        41.08752         2.12708
O         35.16831        28.60908         0.28013
O         38.84882        43.58213         2.47084
O         39.64243        26.94045        -0.73124
O         48.36570        33.90535         2.60944
O         45.43251        45.84215         0.19297
O         39.46982        30.73213        -2.99716
O         48.16895        39.34540        -2.05126
O         42.25394        34.99321        -1.09590
O         41.06352        42.34929         2.62613
O         39.26172        40.02327         2.51235
O         42.60025        39.48290        -1.01871
O         39.88037        36.49470        -1.31332
O         36.46234        35.14959        -2.01087
O         35.59569        44.69320         2.13557
O         44.20001        33.37032         2.38729
O         31.67524        38.76464         2.84076
O         43.70566        29.22384         1.91065
O         39.70354        47.01496         1.43002
O         41.59525        38.74200         2.63476
O         39.30065        37.34598         2.06325
O         37.39620        40.06824        -0.76936
O         44.93088        40.07534        -1.94266
O         36.05227        31.03236        -2.92596
O         33.29311        34.72115        -0.99171
O         34.84450        37.25469        -1.11491
O         35.81194        41.92268         2.25061
O         49.42448        41.44110        -2.53461
O         47.78814        29.14818         3.50233
O         46.90155        37.28766        -1.50543
O         43.72989        26.55170         1.43612
O         34.50852        38.86928         2.24788
O         45.31336        31.26887        -0.46287
O         37.87148        32.88942        -2.66196
O         32.77429        30.56645         1.40401
O         46.63030        31.38653         3.06179
O         48.64333        30.47923         0.27298
H         49.51998        30.22249        -0.08606
O         41.78576        44.82114         2.39884
H         41.36865        44.22330         3.06477
O         41.84456        32.58320         1.67001
H         42.39866        32.71377         2.47594
O         42.22503        35.62261         2.43517
H         42.66724        36.20894         3.08422
O         41.88847        47.94555         0.42742
H         41.12553        48.24989         0.97852
O         31.91905        35.14950         3.01731
H         31.55313        34.34522         3.44040
O         46.17369        34.17122        -1.05852
H         46.17512        34.76728        -1.83732
O         46.19242        34.85284         2.45698
H         46.08781        34.31200         3.26819
O         43.36078        32.37413        -1.63645
H         44.34570        32.31972        -1.66654
O         37.45751        29.77109         0.15548
H         36.88578        29.25342         0.77418
O         50.05793        36.26818         1.86878
H         50.91435        36.57891         2.23240
O         48.38219        45.13822         0.24055
H         47.71251        45.73875         0.63297
O         41.38285        29.14428        -3.10299
H         41.08541        30.00230        -3.49994
O         50.77986        33.47354         2.87645
H         50.00202        33.57989         3.47174
O         37.93597        42.48264        -0.71454
H         37.62631        41.75340        -1.31545
O         34.73876        40.54820        -1.02463
H         34.93712        39.71545        -1.50698
O         51.34686        32.77625        -0.62488
H         51.97205        33.20615        -1.24324
O         34.71367        33.19831        -2.37078
H         35.26711        32.56172        -2.91650
O         49.23773        34.10812        -0.96409
H         49.48109        34.77023        -1.65692
O         40.25695        44.16047        -0.85968
H         39.42770        43.64145        -1.01814
