         404
 CSIRO Nanostructure Databank - Neutral Graphene Oxide Data Set
C          1.11188         3.36904         0.09259
C          0.05232         4.18481        -0.22606
C          1.18052         6.25330        -1.12397
C          0.06965         5.49867        -0.81675
C          1.14596         7.69431        -1.61354
C         -0.04347         8.51882        -1.19312
C          1.20772        10.64565        -1.20903
C         -0.00680         9.87854        -1.14304
C          1.23101        12.05330        -1.09151
C          0.03586        12.82513        -1.23610
C          1.26154        14.91477        -0.93016
C          0.05431        14.19484        -1.17294
C          1.28178        16.34745        -0.85178
C          0.09953        17.10594        -1.04593
C          1.30949        19.19869        -0.73569
C          0.11382        18.48262        -0.99058
C          1.32252        20.64197        -0.70073
C          0.14999        21.38308        -0.96375
C          1.31685        23.48985        -0.61255
C          0.14938        22.76685        -0.91691
C          1.27071        24.94120        -0.49936
C          0.05989        25.66422        -0.61420
C          1.19208        27.77165        -0.16395
C          0.02103        27.04030        -0.45961
C          1.14711        29.22342         0.04361
C         -0.02080        29.90887         0.27624
C          1.08481        32.08999         0.58738
C         -0.04475        31.32384         0.50980
C          0.94155        33.59705         0.76430
C          0.19785        34.17788        -0.41674
C          1.48460        36.26115        -0.28728
C          0.41581        35.43584        -0.83644
C          1.58117        37.63605        -0.71021
C          3.66191         3.38597         0.23988
C          2.45299         3.62990        -0.36160
C          3.66115         6.25484        -0.76675
C          2.48571         5.64227        -1.15863
C          3.56648         7.73282        -0.48327
C          2.47954         8.42218        -1.31343
C          3.69158        10.60746        -0.70328
C          2.48318         9.91373        -1.19773
C          3.67885        12.02269        -0.61386
C          2.46599        12.75426        -0.83485
C          3.68351        14.87782        -0.44194
C          2.46833        14.17719        -0.74891
C          3.70396        16.31100        -0.35944
C          2.50449        17.04258        -0.57723
C          3.73065        19.18285        -0.24776
C          2.51483        18.47694        -0.51656
C          3.74679        20.61649        -0.18035
C          2.53115        21.33971        -0.41289
C          3.75663        23.46012        -0.13383
C          2.53385        22.77099        -0.37978
C          3.75560        24.93372        -0.19684
C          2.45790        25.66014        -0.23349
C          3.61367        27.77874         0.41471
C          2.41232        27.05842        -0.07862
C          3.69812        29.24286         0.14014
C          2.41125        29.99392        -0.01645
C          3.64465        32.10101         0.85978
C          2.40178        31.47236         0.34273
C          3.56398        33.52935         1.26901
C          2.27646        34.30781         1.03938
C          3.58515        36.52789         0.95853
C          2.39815        35.72900         0.61009
C          3.74279        37.87344         0.37573
C          2.64089        38.42501        -0.36121
C          6.09191         3.47743         0.11219
C          4.86929         4.11587        -0.12028
C          6.09014         6.26117        -0.39642
C          4.86865         5.52322        -0.48085
C          6.08727         7.71209        -0.51012
C          4.89404         8.44226        -0.58278
C          6.13482        10.58266        -0.41733
C          4.89482         9.87319        -0.55966
C          6.13221        11.99337        -0.21718
C          4.88799        12.72569        -0.29415
C          6.05049        14.85117         0.29386
C          4.86008        14.13444        -0.18591
C          6.13189        16.31456         0.15456
C          4.92933        17.02247        -0.10032
C          6.16853        19.14418         0.16432
C          4.93737        18.45144        -0.05770
C          6.17837        20.58551         0.28805
C          4.95294        21.31361         0.11514
C          6.15400        23.46060         0.52570
C          4.95597        22.76061         0.15701
C          6.19433        24.86409         0.65154
C          5.00619        25.64776         0.24411
C          6.13370        27.82157         0.97543
C          4.88308        27.06145         0.70909
C          6.11482        29.18645         1.03925
C          4.94993        29.96860         0.51560
C          6.11770        32.08918         1.02975
C          4.86528        31.42477         0.82930
C          6.15194        33.54036         1.26592
C          4.86675        34.27865         1.42763
C          6.17049        36.42681         0.99006
C          4.89975        35.77438         1.30841
C          6.17597        37.83515         0.77507
C          4.95367        38.53273         0.48847
C          8.54975         3.44699         0.07046
C          7.33205         4.14673        -0.02666
C          8.56248         6.27870        -0.23801
C          7.32483         5.57586        -0.21607
C          8.53999         7.69943        -0.38556
C          7.34406         8.41952        -0.50386
C          8.58202        10.60213        -0.48015
C          7.36557         9.87066        -0.49116
C          8.59577        11.98015        -0.14873
C          7.36525        12.65986         0.01218
C          8.59508        14.84138         0.46585
C          7.34229        14.07475         0.42329
C          8.61418        16.22587         0.46911
C          7.37078        16.98753         0.29532
C          8.64054        19.15944         0.24486
C          7.37224        18.40946         0.25857
C          8.63029        20.59782         0.56637
C          7.38525        21.26477         0.59399
C          8.63645        23.43557         0.96371
C          7.32692        22.68813         1.08030
C          8.62251        24.85064         1.12053
C          7.36415        25.55520         1.05116
C          8.59596        27.73567         1.70085
C          7.31386        27.00820         1.37630
C          8.62741        29.24571         1.64149
C          7.31407        29.96622         1.40935
C          8.58468        32.08822         0.97856
C          7.34118        31.40387         1.06878
C          8.59251        33.52085         0.80007
C          7.39684        34.26148         0.95170
C          8.61519        36.35618         0.57943
C          7.38512        35.67716         0.84594
C          8.62437        37.79165         0.55898
C          7.41170        38.50463         0.63868
C         11.01548         3.41421         0.09545
C          9.79329         4.11623        -0.00920
C         11.04804         6.22134        -0.15697
C          9.80339         5.55336        -0.15305
C         11.04210         7.69846        -0.11110
C          9.81829         8.40852        -0.55863
C         11.16836        10.71044        -0.71645
C          9.85925         9.90621        -0.72066
C         11.08879        12.03855         0.00356
C          9.86140        12.65329         0.14429
C         11.10659        14.76614         0.90086
C          9.80752        14.03108         0.67649
C         11.06727        16.23463         0.83602
C          9.89199        16.91800         0.63257
C         11.10230        19.15210         0.90519
C          9.93801        18.39059         0.45948
C         11.09323        20.54912         0.88584
C          9.85859        21.28084         0.76732
C         11.09437        23.43526         0.98052
C          9.85982        22.72689         0.92050
C         11.09273        24.86045         1.14124
C          9.86120        25.54696         1.26839
C         11.19151        27.75405         1.51931
C          9.89349        26.98050         1.63627
C         11.14666        29.25036         1.34433
C          9.85115        29.96266         1.24142
C         11.01224        32.04067         0.50261
C          9.82102        31.34051         0.94143
C         10.98168        33.41116         0.26818
C          9.80649        34.20356         0.48144
C         11.02759        36.34550        -0.01302
C          9.82075        35.63353         0.34498
C         11.06176        37.79228         0.15192
C          9.86250        38.46421         0.44533
C         13.49164         3.39313         0.19169
C         12.25921         4.08331         0.08841
C         13.52533         6.20796        -0.02922
C         12.27180         5.52247        -0.02087
C         13.55716         7.65757        -0.28458
C         12.32338         8.45827        -0.08676
C         13.59504        10.58159        -0.09229
C         12.38579         9.91277        -0.31368
C         13.59609        12.02217         0.09766
C         12.35189        12.72566         0.24419
C         13.60140        14.82605         0.67041
C         12.37728        14.08865         0.59981
C         13.63242        16.22666         0.98958
C         12.33242        16.91798         1.20537
C         13.60745        19.15313         1.42569
C         12.30262        18.41727         1.33929
C         13.58930        20.59560         1.08991
C         12.35684        21.26835         0.97915
C         13.55695        23.37864         0.78092
C         12.33990        22.69838         0.89615
C         13.58247        24.83740         0.95770
C         12.33690        25.60337         1.09712
C         13.59237        27.71562         0.69460
C         12.39565        27.00414         1.07996
C         13.58633        29.14817         0.52378
C         12.36056        29.93325         0.81242
C         13.52604        31.96783        -0.02228
C         12.20550        31.22245         0.03703
C         13.47142        33.37085        -0.44901
C         12.15176        34.09891        -0.31300
C         13.35857        36.12092        -0.88508
C         12.17690        35.57185        -0.36043
C         13.44123        38.24077        -0.46833
C         12.26217        38.58429         0.20004
C         15.95853         3.37978         0.31312
C         14.72424         4.07711         0.21685
C         15.99847         6.22535         0.20292
C         14.73999         5.51692         0.10385
C         16.06134         7.64602         0.15122
C         14.86424         8.40990        -0.19771
C         16.04623        10.53414         0.24796
C         14.82670         9.86129         0.03635
C         16.05745        11.96244         0.29961
C         14.82159        12.70105         0.26914
C         16.04327        14.85828         0.45758
C         14.82832        14.13041         0.47342
C         16.07300        16.25212         0.68655
C         14.85499        16.92597         1.03625
C         16.23186        19.15940         1.32462
C         14.90588        18.37756         1.39990
C         16.08863        20.59303         0.81797
C         14.82452        21.26986         0.85210
C         15.98384        23.36125         0.24127
C         14.79196        22.67786         0.61684
C         15.86239        24.78315        -0.23454
C         14.83444        25.55824         0.55183
C         15.93861        27.64982        -0.11446
C         14.76398        27.00785         0.32981
C         16.00224        29.11037         0.07874
C         14.73437        29.85098         0.19669
C         15.99227        32.00929        -0.24375
C         14.73024        31.29386         0.00610
C         15.96356        33.46099        -0.43805
C         14.72876        34.14010        -0.52159
C         15.86752        36.32883        -0.81563
C         14.66790        35.53567        -0.75993
C         15.88419        37.80850        -0.74122
C         14.77075        38.60331        -0.26274
C         18.44086         3.34668         0.34848
C         17.17876         4.06404         0.41782
C         18.42947         6.20839         0.73041
C         17.18431         5.48736         0.45008
C         18.49294         7.66090         0.52630
C         17.27524         8.36743         0.34142
C         18.51985        10.49472         0.42699
C         17.28198         9.80076         0.32306
C         18.51250        11.93085         0.45247
C         17.30260        12.63624         0.37594
C         18.56210        14.85406         0.09543
C         17.28250        14.10523         0.16901
C         18.53699        16.32448         0.25186
C         17.32395        16.99714         0.53336
C         18.54423        19.12072         0.40290
C         17.36481        18.41396         0.65807
C         18.59877        20.61737         0.65946
C         17.25184        21.29317         0.49528
C         18.41323        23.40765        -0.24500
C         17.20687        22.68650         0.15476
C         18.37423        24.80119        -0.52266
C         17.15987        25.53175        -0.37678
C         18.25799        27.66089        -1.12860
C         17.11338        26.93244        -0.46436
C         18.41180        29.12917        -0.79160
C         17.25965        29.85573        -0.21509
C         18.47535        32.01068        -0.54367
C         17.18143        31.32258        -0.37335
C         18.46261        33.53452        -0.66358
C         17.14481        34.21324        -0.66391
C         18.39734        36.33441        -0.95295
C         17.09709        35.61966        -0.82360
C         18.36226        37.84536        -1.11160
C         17.06122        38.49989        -0.97325
C         19.64348         3.97541         0.36122
C         20.95506         6.18406         0.37122
C         19.75131         5.40637         0.68617
C         20.94934         7.54330         0.38113
C         19.73719         8.33444         0.50178
C         20.99365        10.49992         0.45017
C         19.75239         9.76250         0.45380
C         21.03236        11.85441         0.51092
C         19.80103        12.65020         0.61545
C         21.05723        14.91218         0.07741
C         19.84198        14.15320         0.43810
C         20.98068        16.24771        -0.13001
C         19.75320        17.01024         0.06230
C         20.92568        19.18943        -0.22778
C         19.74941        18.43415         0.07786
C         20.88971        20.56030        -0.35287
C         19.71933        21.31012        -0.08429
C         20.82011        23.41996        -0.78168
C         19.64890        22.69297        -0.36297
C         20.79779        24.76419        -1.00194
C         19.58493        25.52427        -0.88024
C         20.71761        27.65737        -1.50430
C         19.56280        26.90681        -1.10563
C         20.69788        29.02307        -1.61227
C         19.55406        29.80367        -1.17467
C         20.71939        31.98336        -1.53416
C         19.62866        31.26322        -1.08938
C         20.71295        33.40201        -1.64971
C         19.61661        34.17738        -1.32411
C         20.61066        36.34404        -2.04822
C         19.57334        35.61813        -1.50097
C         20.53611        37.76104        -2.24573
C         19.45158        38.48559        -1.85450
O         12.12170        17.56096         2.51796
O          9.49922        18.80088        -0.89693
O          4.67586        29.59497        -0.88933
O          2.52881         4.31480        -1.59576
O         16.96382        29.43923         1.18163
O          3.91163        27.33161         1.79239
O         12.57024        33.52998        -1.63168
O         14.27429        18.76008         2.67226
O         18.80018        32.87787         0.59870
O          2.90301         9.17013        -2.47840
O         14.26365         8.01873        -1.50939
O          6.50192        14.34490         1.60421
O          9.87905         9.01907        -1.90216
O          2.49623        31.00077        -1.06436
O          2.68394        33.92051         2.39045
O         13.26718        37.32970        -1.54655
O          4.71648        25.49507        -1.18704
O         17.91222        14.42973        -1.15300
O         10.36813        14.18034         2.03038
O         18.75338        37.19991         0.17100
O          7.74225        27.24928         2.77355
O         19.82632        13.58062         1.78611
O          7.86678        29.80641         2.76044
O          5.60102        33.85859         2.62478
O          4.08445        36.43034         2.32009
O         19.11867         5.76341         1.95117
O         12.07800        29.99562         2.23799
O         11.59034         8.17591         1.18099
O         14.64892        25.20079         1.93977
O         10.71600        27.27687         2.81616
O         17.85371        27.67418        -2.56695
H         18.62769        28.00297        -3.07428
O          1.02828         7.57131        -3.05901
H          1.57883         8.29876        -3.44086
O         11.39884        11.09207        -2.11287
H         11.16137        10.30674        -2.65878
O          0.10051        33.84355         1.91835
H          0.68747        33.80227         2.70730
O          3.09726         7.89410         0.89896
H          3.78607         7.53005         1.49435
O          7.07357        22.57498         2.53854
H          7.12714        23.47940         2.91705
O         15.30171        24.71526        -1.59652
H         16.01949        24.43886        -2.20496
O         18.94485        20.77079         2.07582
H         18.24403        20.28945         2.58764
O         16.70621        19.29860         2.70544
H         15.89548        19.37521         3.26781
O         11.90343        30.83479        -1.34177
H         11.95965        31.66663        -1.87445
H          0.93541         2.50547         0.75174
H         -0.93778         3.86202         0.13340
H         -0.91458         5.98915        -0.86968
H         -1.01680         8.01403        -1.10758
H         -0.95027        10.41516        -0.96487
H         -0.91561        12.31682        -1.44078
H         -0.89070        14.73508        -1.31288
H         -0.85408        16.60350        -1.25076
H         -0.83069        19.01760        -1.14978
H         -0.78990        20.87302        -1.20801
H         -0.79112        23.29251        -1.12391
H         -0.88133        25.14054        -0.82444
H         -0.94082        27.56038        -0.56200
H         -0.97877        29.37208         0.31572
H         -1.02118        31.80302         0.67031
H         -0.60772        33.57394        -0.85922
H         -0.19437        35.86709        -1.64408
H          0.77553        38.03982        -1.33973
H          3.72915         2.67954         1.08115
H          2.70500        39.46513        -0.71154
H          6.09460         2.41106         0.38198
H          5.03123        39.57050         0.13010
H          8.53295         2.35640         0.21342
H          7.42389        39.59971         0.53689
H         10.99474         2.31956         0.20398
H          9.87966        39.55930         0.54459
H         13.48611         2.29532         0.26462
H         12.24180        39.49423         0.81746
H         15.95316         2.27963         0.31150
H         15.00750        39.50986         0.31278
H         18.39500         2.26295         0.16348
H         17.03681        39.60032        -0.97532
H         20.56702         3.41489         0.15224
H         21.87791         5.64020         0.11930
H         21.89544         8.06355         0.17804
H         21.94349         9.94939         0.42302
H         21.99893        12.37466         0.55914
H         22.02509        14.39599         0.00676
H         21.90215        16.78762        -0.38594
H         21.86488        18.66994        -0.45601
H         21.79522        21.06131        -0.71997
H         21.77865        22.89550        -0.88064
H         21.73207        25.27025        -1.27789
H         21.65928        27.13354        -1.71996
H         21.61135        29.53905        -1.93503
H         21.61633        31.46061        -1.89260
H         21.60706        33.87550        -2.07832
H         21.50958        35.82680        -2.41135
H         21.36113        38.25344        -2.77970
H         19.35643        39.54848        -2.12007
