         252
 CSIRO Nanostructure Databank - Neutral Graphene Oxide Data Set
C         30.49530        31.77681        -1.60133
C         30.54444        33.03487        -1.46785
C         30.41499        36.16158        -0.84488
C         30.42211        37.37339        -0.59655
C         30.45439        40.52203         0.28657
C         30.37144        41.57492         0.90974
C         32.91232        28.93199        -1.63076
C         31.85970        29.57075        -1.73995
C         32.88078        31.72626        -1.50534
C         31.65053        30.98610        -1.61795
C         32.87479        33.13908        -1.25832
C         31.63690        33.87781        -1.29359
C         32.83538        36.08387        -0.80853
C         31.58351        35.34562        -1.22086
C         32.79154        37.48129        -0.20630
C         31.49069        38.23724        -0.07357
C         32.84273        40.35432         0.39342
C         31.56557        39.73606        -0.28303
C         32.83168        41.59822         1.06491
C         31.48680        42.19502         1.69386
C         32.76195        44.20633         1.73406
C         31.63756        43.70025         1.63350
C         35.60915        27.38473        -1.01941
C         35.36810        28.72994        -1.07101
C         34.31147        29.42543        -1.88266
C         35.38178        31.71916        -0.98151
C         34.19932        31.00457        -1.58979
C         35.30053        33.16597        -0.64180
C         34.09951        33.83211        -0.84510
C         35.35491        36.03421        -0.37765
C         34.04720        35.26755        -0.49228
C         35.32444        37.53193        -0.59179
C         34.04569        38.29008        -0.40642
C         35.30402        40.30622         0.45402
C         34.06837        39.69022         0.12734
C         35.29212        41.62134         0.99202
C         34.07073        42.28940         1.25654
C         35.25417        44.48507         1.50536
C         34.10314        43.74251         1.55324
C         35.48178        45.89859         1.43730
C         37.80878        27.21815        -0.12090
C         36.61978        26.71012        -0.60312
C         37.65523        28.66173         0.21462
C         36.39672        29.43100        -0.25374
C         37.72063        31.66733         0.06383
C         36.45042        30.94353        -0.27042
C         37.80611        33.12453        -0.23554
C         36.56480        33.86990        -0.43563
C         37.88226        35.99274        -0.52079
C         36.60350        35.26594        -0.50654
C         37.88013        37.48153        -0.27982
C         36.60005        38.27763        -0.36742
C         37.80459        40.24188         0.44638
C         36.57683        39.62364         0.23539
C         37.83000        41.67584         0.70386
C         36.58161        42.31354         1.19543
C         37.76781        44.55480         0.82282
C         36.58245        43.80952         1.38877
C         37.75758        46.07257         0.68248
C         36.50081        46.59072         1.26529
C         40.26820        24.44848         0.31062
C         39.25523        25.13616         0.03406
C         40.25441        27.19754         0.46661
C         39.05438        26.53529         0.10504
C         40.19487        28.66658         0.74547
C         38.91103        29.42924         0.57320
C         40.22525        31.65907         0.52729
C         39.02122        30.86590         0.04740
C         40.23452        33.01854         0.35371
C         39.02530        33.74588        -0.03168
C         40.16474        35.88849         0.64722
C         39.14754        35.20801        -0.19782
C         39.88494        37.16409         1.11138
C         38.95081        38.06057         0.54031
C         40.25236        40.22497         0.81514
C         39.05639        39.49344         0.61408
C         40.23609        41.60546         0.16893
C         38.99269        42.36843         0.55832
C         40.17452        44.55372         0.03529
C         39.11255        43.83475         0.90853
C         40.40941        46.00034         0.57163
C         39.03949        46.78892         0.55832
C         40.38508        48.83347         0.17361
C         39.34777        48.09289         0.41852
C         42.78559        24.48579         0.95065
C         41.51655        25.02269         0.64360
C         42.73264        27.21987         0.76252
C         41.49883        26.48873         0.63998
C         42.73376        28.66560         0.27968
C         41.51034        29.42365         0.80041
C         42.75648        31.68358         0.61776
C         41.49286        30.92477         0.76632
C         42.76702        33.04883         0.63844
C         41.52497        33.82316         0.30127
C         42.74893        35.98230         1.17318
C         41.42812        35.19334         0.97006
C         42.80674        37.48625         1.21120
C         41.73571        38.25325         1.56873
C         42.83263        40.43929         0.90372
C         41.56509        39.70084         1.27051
C         42.78642        41.75382         0.23611
C         41.50764        42.43326         0.20909
C         42.62448        44.46633        -0.69185
C         41.46818        43.78195        -0.00976
C         42.69316        45.96977        -0.47888
C         41.57487        46.71611        -0.12492
C         42.83953        48.68929        -0.62219
C         41.57048        48.19672        -0.20578
C         43.82242        25.18266         1.08823
C         45.21146        27.32380         1.08659
C         43.97261        26.58445         0.98048
C         45.25937        28.70626         0.99016
C         44.05093        29.43239         0.53130
C         45.24810        31.66522         1.18732
C         44.04014        30.93074         0.63482
C         45.22741        33.11696         0.76384
C         44.03373        33.78140         0.71030
C         45.27435        36.01107         0.51609
C         43.98248        35.27575         0.64555
C         45.36053        37.47044         0.82996
C         44.10067        38.21423         1.06535
C         45.26776        40.34821         0.56567
C         44.11002        39.68402         0.81700
C         45.31284        41.84481         0.32964
C         43.96847        42.39965        -0.09055
C         45.11076        44.35451        -1.03767
C         43.95261        43.74789        -0.56177
C         45.05475        45.78909        -1.26331
C         43.94067        46.56844        -0.92898
C         43.81355        47.98474        -0.97469
C         47.58490        27.37669         1.15907
C         46.51828        26.72406         1.26710
C         47.83458        28.74658         0.98113
C         46.53664        29.48843         1.35361
C         47.72311        31.57902         0.56917
C         46.53834        30.92845         0.88939
C         47.67794        33.00426         0.03343
C         46.55069        33.80025         0.67555
C         47.75494        35.98072         0.01922
C         46.58073        35.27852         0.52510
C         47.84714        37.43042         0.41733
C         46.52294        38.19906         0.17167
C         47.67655        40.39624        -0.16070
C         46.61800        39.66239         0.67523
C         47.83703        41.89110         0.02844
C         46.49696        42.17326        -0.62066
C         47.66927        44.27685        -1.69014
C         46.30300        43.46976        -1.49777
C         47.37194        45.67987        -1.97982
C         46.33265        46.27908        -1.68011
C         50.27852        28.85283         0.32808
C         48.98348        29.44392         0.63099
C         50.27576        31.61565         0.40204
C         48.96273        30.87740         0.50557
C         50.18545        33.09858         0.08768
C         49.01027        33.76361        -0.00298
C         50.24985        36.01438        -0.28636
C         48.95466        35.23091        -0.49043
C         50.27658        37.45120        -0.19365
C         49.02372        38.20781        -0.12662
C         50.21478        40.34894        -0.06132
C         48.95585        39.58193        -0.27325
C         50.25156        41.77167        -0.54932
C         48.97220        42.51110        -0.38668
C         50.21822        44.55226        -0.82027
C         48.95211        43.82386        -1.10185
C         51.07111        29.49124        -0.44103
C         51.88431        31.76724        -1.44721
C         51.20278        30.85880        -0.65635
C         51.92584        33.03700        -1.55828
C         51.52506        33.77878        -0.21171
C         52.56360        36.09926        -0.32273
C         51.44285        35.26325        -0.33240
C         52.65548        37.35534        -0.26537
C         51.51310        38.16894        -0.14186
C         52.68272        40.52894        -0.10960
C         51.53084        39.61517         0.07491
C         52.67011        41.76758        -0.14460
C         51.64565        42.75795         0.24707
C         51.25879        43.98827        -0.43589
O         36.71060        31.43477         1.08275
O         46.87907        34.56878         1.86337
O         38.86547        35.65852        -1.55823
O         35.23468        31.59511        -2.43717
O         44.35574        30.28902        -0.64669
O         37.53933        38.22412        -1.49580
O         42.06598        35.30854         2.26658
O         46.80463        40.87756        -1.40008
O         50.79422        40.07972         1.26343
O         41.64336        30.14511         2.04230
O         41.59962        34.19785        -1.18822
O         34.58865        38.04543        -1.74931
O         40.63952        37.65145         2.18408
O         37.45591        45.18870        -0.44371
O         32.14985        37.67279         1.08621
O         44.43520        35.76646        -0.67288
O         36.83718        42.93175         2.52686
O         34.58973        35.61627         0.81383
O         39.36600        29.08176         1.89306
O         45.04568        37.84486         2.19408
O         36.53330        28.92286         1.10588
O         48.62064        43.58374        -2.52542
O         42.27352        40.54149         2.27198
O         32.43208        36.02067        -2.20456
O         42.77043        33.60458        -1.78544
H         43.40832        34.36434        -1.83223
O         34.63398        29.25963        -3.24568
H         33.99031        29.74815        -3.79826
O         31.66488        39.98203        -1.68517
H         32.35894        39.41396        -2.08063
O         45.92067        43.03338        -2.80577
H         46.69014        42.56564        -3.19933
O         39.68451        44.63293        -1.30816
H         40.44118        44.52282        -1.93163
O         46.25221        38.18087        -1.23967
H         46.32990        39.08693        -1.61777
O         40.81057        45.91545         1.94325
H         41.05344        46.81142         2.25752
O         42.54018        28.56579        -1.15126
H         43.12588        29.23495        -1.57968
O         50.96243        31.49145         1.66867
H         50.95625        30.54239         1.92369
O         52.50309        33.50045         0.74667
H         52.35010        32.60496         1.13172
O         39.52967        43.84090         2.28817
H         38.82063        43.39879         2.81137
O         40.13677        41.32384        -1.27439
H         39.26851        40.90024        -1.45140
O         45.08465        31.70930         2.64592
H         45.65088        32.43164         2.99659
O         47.00915        39.71002         2.06008
H         46.30204        39.24234         2.57261
O         46.56542        29.48292         2.81825
H         45.92868        30.18249         3.11823
O         45.65149        42.50058         1.57832
H         44.96000        42.28879         2.24078
O         48.11107        37.36110         1.84666
H         48.12494        38.28671         2.19858
O         39.28768        30.64191        -1.37795
H         39.47488        31.50428        -1.80924
O         47.27049        32.89048        -1.36884
H         47.79727        32.17731        -1.78927
O         48.78927        35.13914        -1.94553
H         48.04061        34.51669        -2.11479
O         31.45276        41.77315         3.02473
H         30.62520        42.08122         3.44696
O         42.28932        44.32957        -2.13400
H         43.11589        44.43379        -2.65584
O         51.49562        42.83098         1.60734
H         51.62839        41.93585         1.99309
O         50.59423        41.69603        -1.91003
H         50.33007        42.51552        -2.38192
