         404
 CSIRO Nanostructure Databank - Neutral Graphene Oxide Data Set
C          1.41942         1.89664        -0.06929
C          1.34399         3.32268         0.01031
C          2.58450         1.22071         0.14142
C          2.44768         4.11178         0.27420
C          1.24800         6.27331        -0.01554
C          1.20789         7.68794        -0.10933
C          2.41129         5.56392         0.23384
C          2.33828         8.47567         0.02483
C          1.11908        10.63072        -0.02939
C          1.10156        12.02533         0.03270
C          2.32236         9.91947        -0.11119
C          2.27698        12.78614        -0.06306
C          1.20270        14.82420         0.91211
C          1.25915        16.17426         1.27882
C          2.25958        14.19582         0.23781
C          2.42199        16.94850         1.08987
C          2.50357        18.31343         1.52990
C          3.77688         1.92505         0.61628
C          3.71405         3.46493         0.68105
C          5.09614         1.30191         0.50415
C          4.98734         4.20742         0.53283
C          3.65025         6.31366         0.54290
C          3.60367         7.83243         0.43183
C          4.96015         5.61506         0.42744
C          4.87887         8.58985         0.19373
C          3.55660        10.64558        -0.31378
C          3.52692        12.10342        -0.36677
C          4.77251         9.95254        -0.39255
C          4.71861        12.81892        -0.48473
C          3.42671        15.01721        -0.10248
C          3.55763        16.36606         0.45362
C          4.73449        14.28764        -0.47783
C          4.78261        17.05505         0.35693
C          3.66860        19.01725         1.40148
C          4.85781        18.41338         0.86354
C          6.25915         2.04645         0.54668
C          6.21874         3.51157         0.49695
C          7.52764         1.38815         0.63987
C          7.41914         4.23676         0.32825
C          6.16339         6.33069         0.23969
C          6.16319         7.81650         0.11529
C          7.38723         5.63104         0.16311
C          7.35255         8.44294        -0.55837
C          5.98020        10.62119        -0.87274
C          5.98017        12.16165        -0.83997
C          7.29074         9.88118        -0.94733
C          7.26063        12.87504        -0.63243
C          6.00250        15.00651        -0.30862
C          5.98156        16.38216        -0.05561
C          7.24365        14.26278        -0.37851
C          7.24003        17.18951        -0.26537
C          6.07496        19.08726         0.93020
C          7.29436        18.49187         0.50181
C          8.73026         2.09075         0.61946
C          8.73949         3.51776         0.12268
C          9.95758         1.46349         0.88607
C          9.90978         4.32152         0.67693
C          8.69615         6.30711        -0.21017
C          8.65399         7.81802        -0.22118
C          9.85754         5.70428         0.55266
C          9.78758         8.57946        -0.14775
C          8.58636        10.68408        -1.14375
C          8.50605        12.14700        -0.69470
C          9.79320         9.98860        -0.49735
C          9.70091        12.81597        -0.49970
C          8.47530        14.99282        -0.20161
C          8.50007        16.37369        -0.09541
C          9.75429        14.23076        -0.00308
C          9.74430        17.08454         0.00914
C          8.50917        19.11529         0.69174
C          9.75846        18.47805         0.34515
C         11.14935         2.21434         1.08454
C         11.08202         3.64521         1.11259
C         12.39162         1.54659         1.23344
C         12.27332         4.41260         1.53715
C         10.98992         6.56257         0.94427
C         10.99704         7.99981         0.51379
C         12.28724         5.91322         1.35714
C         12.31354         8.67122         0.40130
C         10.96941        10.69690        -0.43253
C         10.97126        12.13229        -0.63501
C         12.25329        10.10331         0.00776
C         12.15010        12.84162        -0.84962
C         10.97687        14.98216        -0.48018
C         10.97503        16.41844        -0.28086
C         12.12781        14.28793        -0.82031
C         12.16558        17.16017        -0.32145
C         10.97239        19.16805         0.42678
C         12.20494        18.53375         0.09380
C         13.61052         2.23908         1.37966
C         13.58500         3.69402         1.64575
C         14.84690         1.59820         1.31555
C         14.86847         4.49944         1.50758
C         13.58329         6.62654         1.11825
C         13.49596         8.04423         0.72800
C         14.78872         5.95651         1.20334
C         14.76973         8.80307         0.55864
C         13.51435        10.79023        -0.45585
C         13.38206        12.07173        -1.31853
C         14.72912         9.93961        -0.39627
C         14.64757        12.93513        -1.29529
C         13.36984        15.04003        -1.09067
C         13.39792        16.53599        -0.80406
C         14.65513        14.32554        -1.05806
C         14.68830        17.17435        -0.51908
C         13.44391        19.20194         0.15979
C         14.68660        18.54195        -0.09235
C         16.07549         2.32356         1.20142
C         16.09523         3.75193         1.15820
C         17.27437         1.60449         1.01348
C         17.29355         4.43658         0.80889
C         16.14835         6.66082         1.25248
C         16.09471         8.08647         0.71031
C         17.31731         5.85919         0.69354
C         17.29319         8.62366         0.02353
C         15.88842        10.27364        -1.03528
C         15.87661        12.35246        -1.59808
C         17.19970         9.85967        -0.63817
C         17.13982        12.90726        -1.27332
C         15.88342        15.03009        -0.95847
C         15.89190        16.45842        -0.67947
C         17.12116        14.31732        -0.99272
C         17.13239        17.13797        -0.48969
C         15.92132        19.20763         0.06134
C         17.14604        18.53498        -0.15375
C         18.49166         2.26311         0.73863
C         18.49592         3.69269         0.58747
C         19.69661         1.53788         0.60234
C         19.71035         4.35919         0.26391
C         18.50410         6.50409         0.28272
C         18.51176         7.91603        -0.02087
C         19.71251         5.77200         0.05903
C         19.66784         8.56836        -0.54680
C         18.36357        10.65275        -0.92132
C         18.31856        12.09883        -1.10300
C         19.60040         9.95315        -0.85361
C         19.54463        12.83217        -0.79701
C         18.35324        15.01865        -0.81661
C         18.36584        16.43199        -0.61170
C         19.57322        14.30278        -0.85166
C         19.60798        17.10916        -0.48060
C         18.39450        19.19458         0.00496
C         19.61608        18.51813        -0.15685
C         20.91803         2.19235         0.33295
C         20.92270         3.61857         0.14080
C         22.13319         1.47450         0.26136
C         22.14166         4.29280        -0.14243
C         20.91691         6.44354        -0.33559
C         20.91149         7.83774        -0.66428
C         22.13922         5.70690        -0.39850
C         22.11743         8.46321        -1.10209
C         20.82238        10.64882        -1.30084
C         20.91623        12.08149        -0.93508
C         22.12270         9.89723        -1.50135
C         22.12507        12.81907        -1.23850
C         20.79990        14.99219        -0.85531
C         20.82755        16.40291        -0.66966
C         22.03659        14.28226        -1.24305
C         22.08915        17.09007        -0.48277
C         20.85993        19.16938         0.05489
C         22.08524        18.48379        -0.04366
C         23.36000         2.13629         0.04015
C         23.36047         3.56148        -0.17037
C         24.58359         1.42645         0.02293
C         24.59415         4.24340        -0.37992
C         23.35904         6.37190        -0.71125
C         23.33157         7.75380        -1.07045
C         24.59664         5.64109        -0.66834
C         24.56573         8.40719        -1.56420
C         23.37483        10.68435        -1.49258
C         23.36354        12.11618        -1.46300
C         24.60086         9.92462        -1.76700
C         24.59285        12.84716        -1.49559
C         23.33742        15.07909        -1.22153
C         23.29406        16.41741        -0.62238
C         24.62203        14.31106        -1.34126
C         24.51624        16.98332        -0.00934
C         23.30347        19.13103         0.25420
C         24.54463        18.43631         0.29828
C         25.81836         2.09439        -0.14031
C         25.82239         3.52361        -0.32398
C         27.04756         1.39918        -0.11997
C         27.05642         4.22430        -0.39774
C         25.84566         6.30990        -0.82520
C         25.87589         7.68746        -1.38203
C         27.04328         5.64211        -0.57640
C         27.17283         8.46499        -1.33691
C         25.92968        10.63926        -1.79254
C         25.89865        12.16713        -1.64805
C         27.16932         9.93826        -1.40590
C         27.13764        12.81184        -1.15198
C         25.90304        14.97671        -0.91739
C         25.81773        16.24898        -0.12251
C         27.13118        14.16017        -0.75823
C         27.11040        16.97003         0.17225
C         25.73427        19.08065         0.60144
C         27.05317        18.42399         0.64945
C         28.28219         2.07921        -0.25864
C         28.29075         3.50723        -0.37503
C         29.51144         1.37382        -0.26614
C         29.53826         4.21027        -0.55240
C         28.31012         6.39907        -0.26851
C         28.38715         7.81020        -0.81009
C         29.54602         5.60255        -0.58099
C         29.56497         8.50618        -0.76307
C         28.35862        10.64094        -1.19562
C         28.35855        12.08330        -1.09688
C         29.60965         9.93721        -0.97761
C         29.58700        12.77118        -0.87856
C         28.34146        14.84793        -0.50861
C         28.32790        16.27047        -0.32772
C         29.59588        14.18727        -0.69770
C         29.49953        16.95001        -0.58626
C         28.26275        19.28490         0.86835
C         29.46784        19.01285         0.25929
C         30.75183         2.04066        -0.40702
C         30.78135         3.46983        -0.59949
C         31.96980         1.33253        -0.32914
C         32.02139         4.13029        -0.71220
C         30.77869         6.34794        -0.83375
C         30.82181         7.77845        -0.34192
C         32.07689         5.58387        -0.93802
C         32.10586         8.48591        -0.69067
C         30.82910        10.62313        -0.89203
C         30.83479        12.06532        -0.88458
C         32.09664         9.89386        -0.80339
C         32.04432        12.78819        -0.83914
C         30.82261        14.91352        -0.65517
C         30.80204        16.35312        -0.54313
C         32.06672        14.21177        -0.72509
C         31.95385        17.12469        -0.28204
C         30.80940        19.27271         0.63742
C         31.93862        18.49919         0.21744
C         33.21355         2.00253        -0.36976
C         33.24186         3.42822        -0.55231
C         34.43044         1.30323        -0.19181
C         34.49875         4.12362        -0.58925
C         33.35231         6.30750        -0.75073
C         33.32611         7.76687        -0.74683
C         34.53076         5.58094        -0.70024
C         34.54784         8.48115        -0.81083
C         33.32763        10.59160        -0.87540
C         33.31215        12.05937        -1.00870
C         34.56607         9.89896        -0.83391
C         34.60156        12.81914        -0.74942
C         33.28442        14.93903        -0.55115
C         33.29280        16.45685        -0.56961
C         34.51062        14.25317        -0.39211
C         34.47097        17.04704         0.16346
C         33.18086        19.11017         0.51617
C         34.42756        18.43536         0.50325
C         35.66073         1.98642        -0.18706
C         35.68378         3.40374        -0.43144
C         36.87021         1.30810         0.13048
C         37.02678         4.05787        -0.63214
C         35.82087         6.26343        -0.71340
C         35.81026         7.73130        -0.95367
C         36.99345         5.56770        -0.55270
C         37.11436         8.51103        -0.87011
C         35.82318        10.62817        -0.64559
C         35.80715        12.03163        -0.41339
C         37.05027         9.93868        -0.49231
C         36.94409        12.68466         0.08372
C         35.65652        14.89954         0.11292
C         35.64290        16.30765         0.39041
C         36.82414        14.09553         0.51156
C         36.84850        16.98297         0.82304
C         35.60070        19.10399         0.89879
C         36.82933        18.41144         1.00548
C         38.05231         2.03066         0.43098
C         38.08813         3.41910         0.22706
C         39.25020         1.32245         0.85029
C         39.21192         4.20900         0.70429
C         38.31413         6.24132        -0.49289
C         38.38180         7.75763        -0.61367
C         39.40761         5.58471         0.24484
C         39.51449         8.45546         0.01538
C         38.22238        10.60070        -0.03872
C         38.16750        11.98887         0.27563
C         39.45973         9.86568         0.18321
C         39.37350        12.70083         0.66465
C         38.07337        14.81670         0.96546
C         38.06440        16.29144         0.97969
C         39.36202        14.10372         0.89679
C         39.27819        16.98152         1.23179
C         38.02519        19.09203         1.31460
C         39.24990        18.40661         1.40610
C         40.42240         1.95767         1.10188
C         40.48733         3.42057         1.19052
C         41.75080         4.14504         1.07153
C         40.60197         6.25427         0.49035
C         40.66204         7.71261         0.38175
C         41.77699         5.48859         0.85641
C         41.80349         8.42830         0.81793
C         40.62605        10.55444         0.60468
C         40.60601        11.99886         0.74862
C         41.79380         9.80731         0.89165
C         41.79277        12.73099         0.97748
C         40.55607        14.82342         1.11760
C         40.52353        16.27552         1.33165
C         41.77394        14.10565         1.13127
C         41.68169        17.00174         1.61465
C         40.46436        19.09850         1.69027
C         41.64901        18.40151         1.79391
O         15.84406        11.08474        -2.17364
O          5.82777        11.40788        -2.09338
O         39.53634         4.00413         2.12074
O          8.92918         3.40235        -1.29218
O         14.34060         4.08871         2.82089
O         20.30362        12.33114         0.36647
O          3.86301        14.88497        -1.49383
O         31.36704         6.08470        -2.14029
O         21.24240        10.27322        -2.63969
O         13.28547        16.00516        -2.18538
O         36.53422         8.17648        -2.16009
O         10.64484         7.63819         1.90188
O         24.99737        16.08884         1.07729
O         27.16496        17.27757         1.60375
O         12.09339         5.31608         2.67828
O         22.58365        14.93257        -2.46005
O         34.13493        12.56013        -2.11928
O         15.59277         9.00989         1.75494
O          3.53534         7.17432         1.72989
O         37.13949        14.24266         1.95477
O          7.16580         8.80926        -1.96542
O         24.41748         8.98482        -2.88910
O         26.07960        11.50848        -2.95307
O          3.60466         2.65943         1.88747
O         13.01596        10.99750         0.90171
O          5.80710         8.54119         1.34286
O         38.76354         6.89729        -1.72893
O         25.50059        15.04118        -2.31578
O         29.38305        18.28382        -0.94665
O         26.70959         7.77858        -2.57812
O          7.20861        17.58944        -1.68272
H          7.01434        16.78802        -2.21422
O         37.42645         3.76802        -2.02586
H         36.90017         4.35042        -2.61480
O         33.55463        16.79829        -1.99904
H         32.88397        16.32564        -2.53814
O         16.44724         6.75098         2.67204
H         15.97411         7.54853         3.00782
O          8.85148        10.72959        -2.56570
H          8.45459         9.91511        -2.95382
O          8.96372         5.99357        -1.61176
H          8.93643         4.98132        -1.70819
O         13.13604        11.61956        -2.66717
H         13.00387        12.40238        -3.24128
O         30.80782         7.67459         1.13081
H         30.87743         8.58355         1.49363
O          9.92546        14.12732         1.46648
H         10.69674        13.54212         1.63037
O         28.26841         6.56438         1.20144
H         29.16318         6.89653         1.47179
H          0.52233         1.34986        -0.39256
H          0.38254         3.79027        -0.24261
H          2.65822         0.14482        -0.07445
H          0.30847         5.73266        -0.19394
H          0.24593         8.15055        -0.36983
H          0.16950        10.08975         0.07805
H          0.13750        12.52880         0.18576
H          0.30191        14.25150         1.17310
H          0.39393        16.62897         1.78200
H          1.61463        18.78010         1.97812
H          5.15416         0.20745         0.39830
H          3.72687        20.05844         1.75130
H          7.53533         0.30901         0.86486
H          6.11097        20.08306         1.39844
H         10.00154         0.36742         0.98684
H          8.54165        20.11716         1.14705
H         12.41484         0.45144         1.13355
H         10.97834        20.22429         0.73343
H         14.87914         0.50353         1.21258
H         13.46390        20.25938         0.46290
H         17.25748         0.50669         1.07541
H         15.93211        20.26551         0.36203
H         19.68585         0.44615         0.73553
H         18.40275        20.26063         0.27655
H         22.12532         0.38482         0.41089
H         20.86242        20.22979         0.34837
H         24.57449         0.33635         0.16936
H         23.28682        20.19924         0.51796
H         27.04665         0.30582        -0.00016
H         25.70718        20.16794         0.77267
H         29.50302         0.28077        -0.14247
H         28.24153        19.90669         1.77629
H         31.95144         0.24174        -0.18783
H         31.01101        20.10773         1.32589
H         34.40999         0.21774        -0.01503
H         33.17181        20.15358         0.86678
H         36.85043         0.21861         0.27954
H         35.56448        20.18192         1.11428
H         39.21534         0.22282         0.83971
H         38.00077        20.18082         1.46935
H         41.34883         1.38272         1.24947
H         42.69036         3.57827         1.15116
H         42.75415         5.99007         0.82698
H         42.71582         7.89259         1.10991
H         42.70422        10.31854         1.23011
H         42.76100        12.21506         1.01245
H         42.72614        14.62983         1.28420
H         42.65052        16.49315         1.70524
H         40.44103        20.18913         1.82547
H         42.58472        18.93353         2.01517
