         324
 CSIRO Nanostructure Databank - Neutral Graphene Oxide Data Set
C          1.56335         3.97489        -3.23910
C          0.44734         4.72498        -3.51634
C          1.50395         6.78261        -2.70631
C          0.40970         6.11934        -3.24211
C          1.46909         8.21148        -2.40268
C          0.30200         8.95261        -2.34001
C          1.37286        11.00294        -1.46912
C          0.25663        10.30612        -1.89870
C          1.33113        12.37299        -0.96136
C          0.11441        13.09343        -0.91504
C          1.24758        15.07310        -0.05469
C          0.06932        14.39074        -0.43143
C          1.19819        16.37213         0.58775
C          0.07769        16.75571         1.29237
C          1.27630        18.64651         2.24403
C          0.11557        17.88979         2.13361
C          1.26858        20.87410         2.68828
C          0.04861        21.55487         2.61631
C          1.14950        23.50595         1.67346
C         -0.01807        22.80403         1.96641
C          1.12873        24.79909         1.04915
C          0.02800        25.29557         0.35804
C          1.15137        27.41745        -0.16876
C          0.04170        26.58253        -0.22656
C          1.15643        28.69130        -0.85718
C          3.88591         3.84134        -2.44029
C          2.72753         4.58061        -2.66016
C          3.82142         6.61709        -1.84911
C          2.70274         6.01508        -2.39812
C          3.96983         8.08425        -1.86493
C          2.74227         8.90869        -2.14353
C          3.82603        10.84326        -0.81102
C          2.68663        10.34770        -1.63908
C          3.76569        12.29074        -0.34824
C          2.51809        13.05239        -0.56568
C          3.73507        15.13952         0.11545
C          2.49847        14.41189        -0.18751
C          3.69670        16.46038         0.46841
C          2.41542        17.26323         0.50284
C          3.62377        19.24926         1.53382
C          2.45871        18.42892         1.49132
C          3.64074        20.68510         1.84074
C          2.47331        21.42071         2.19007
C          3.68453        23.58429         1.73195
C          2.44438        22.93007         2.25145
C          3.62657        25.04901         1.64092
C          2.30995        25.68101         1.20708
C          3.51666        27.73498         0.43467
C          2.36058        26.98356         0.50507
C          3.48192        29.15880        -0.07455
C          2.23541        29.50014        -0.84014
C          6.20685         3.68041        -1.64392
C          5.03614         4.39438        -1.78504
C          6.12860         6.44897        -0.65969
C          4.91505         5.79069        -1.29420
C          6.25850         7.91844        -0.65483
C          5.17072         8.72812        -1.22230
C          6.25406        10.75508        -0.31743
C          5.13627        10.15251        -0.83664
C          6.31717        12.26756        -0.32385
C          5.01586        12.97858        -0.11378
C          6.25694        15.03803         0.51123
C          5.06121        14.47232        -0.23447
C          6.26540        16.50309         0.66782
C          4.93202        17.26519         0.60987
C          6.09935        19.30034         1.32914
C          4.87641        18.63241         1.15349
C          6.09183        20.74358         1.44600
C          4.85078        21.42620         1.59319
C          6.10933        23.62215         1.30265
C          4.86159        22.88291         1.55092
C          6.11587        25.00402         1.21068
C          4.89386        25.79414         1.41156
C          6.08129        27.77058         0.27428
C          4.83357        27.22006         0.87555
C          5.96482        28.94962        -0.58521
C          4.71506        29.51441        -0.84907
C          8.72881         3.51246        -1.19478
C          7.39310         4.19701        -0.93911
C          8.64646         6.36818        -0.27084
C          7.37431         5.63641        -0.47402
C          8.59107         7.72954         0.01997
C          7.40497         8.53456        -0.17567
C          8.56391        10.65204         0.50998
C          7.44895         9.99195        -0.00993
C          8.57347        12.09554         0.69478
C          7.45405        12.86684         0.46319
C          8.59152        14.93649         1.31029
C          7.41423        14.29555         0.77076
C          8.46356        16.30944         1.95895
C          7.39235        17.17906         1.30976
C          8.55968        19.29626         1.85071
C          7.33646        18.55047         1.46743
C          8.57310        20.77447         1.60652
C          7.30353        21.46703         1.34749
C          8.60346        23.52856         1.03831
C          7.35996        22.88439         1.22584
C          8.67776        25.00134         1.07081
C          7.36827        25.78595         1.10808
C          8.55441        27.84852         0.14135
C          7.29375        27.14560         0.49254
C          8.43538        29.09734        -0.80042
C          7.10916        29.44962        -1.24051
C         11.12824         3.53961        -0.53312
C          9.92501         4.23095        -0.59951
C         11.10296         6.25764         0.12159
C          9.87942         5.61283        -0.23461
C         11.08303         7.72432         0.36348
C          9.76412         8.37759         0.63538
C         11.02070        10.52423         1.32880
C          9.72270         9.84162         0.96932
C         11.08853        12.01023         1.22786
C          9.84952        12.80139         0.97849
C         11.03248        14.85962         1.71374
C          9.81776        14.23930         1.36014
C         11.08245        16.28492         1.97205
C          9.79981        17.05058         2.08339
C         11.09218        19.16234         1.35027
C          9.86451        18.54387         1.92165
C         10.93565        20.51825         0.77509
C          9.81768        21.40789         1.14877
C         11.01998        23.40344         0.29029
C          9.81593        22.76066         0.81326
C         11.05033        24.83191         0.08931
C          9.93565        25.66962         0.57762
C         10.96803        27.62153        -0.74233
C          9.87379        27.11564         0.10853
C         10.86875        28.92071        -1.36870
C          9.62478        29.55258        -1.50717
C         13.57424         3.45947        -0.11385
C         12.35173         4.17058        -0.15188
C         13.58687         6.21124         0.66287
C         12.31612         5.57445         0.14174
C         13.63782         7.71970         0.64497
C         12.35117         8.44322         0.65088
C         13.61077        10.56691         1.20114
C         12.33350         9.80837         1.24833
C         13.60731        11.94180         1.47682
C         12.33729        12.64071         1.76815
C         13.58750        14.84648         1.57544
C         12.31947        14.14262         1.89036
C         13.55427        16.22619         1.21568
C         12.39100        17.04198         1.58590
C         13.43455        19.08473         0.52075
C         12.27349        18.46015         1.15194
C         13.40931        20.40626         0.13525
C         12.15318        21.17372         0.16376
C         13.37609        23.24790        -0.45642
C         12.18096        22.64335         0.02991
C         13.27178        24.62507        -0.95685
C         12.13556        25.45471        -0.52902
C         13.32017        27.46610        -1.44890
C         12.13173        26.85163        -0.90174
C         13.28853        28.86097        -1.81116
C         12.04502        29.52556        -1.87243
C         16.08433         3.46086        -0.15407
C         14.83164         4.14053        -0.00644
C         16.06451         6.28687        -0.01159
C         14.82529         5.53896         0.14726
C         16.08040         7.80206         0.31584
C         14.80184         8.43669         0.71596
C         16.05909        10.54145         1.24903
C         14.82497         9.86674         1.01744
C         16.05903        11.93729         1.44592
C         14.82785        12.66689         1.48249
C         16.00299        14.82460         1.07194
C         14.77712        14.10726         1.44574
C         15.96375        16.28026         0.92163
C         14.73883        16.90656         0.81637
C         15.95856        19.01093         0.15864
C         14.64784        18.24254         0.13550
C         15.91919        20.33983        -0.45609
C         14.57698        21.07417        -0.48780
C         15.80324        23.18912        -1.03327
C         14.57788        22.53665        -0.65573
C         15.81241        24.57565        -1.35258
C         14.53610        25.29618        -1.47322
C         15.75613        27.43386        -1.82664
C         14.54017        26.76517        -1.55878
C         15.73359        28.85450        -2.06314
C         14.49358        29.52591        -2.12063
C         18.56932         3.45197        -0.12109
C         17.30757         4.14087        -0.05810
C         18.53916         6.28617         0.18828
C         17.33480         5.57090         0.05520
C         18.55058         7.70751         0.48842
C         17.34608         8.40503         0.68667
C         18.66900        10.48403         1.37708
C         17.32379         9.75220         1.28898
C         18.66874        11.98155         1.48600
C         17.33357        12.68882         1.58206
C         18.58857        14.86991         1.17832
C         17.32119        14.10944         1.11831
C         18.52352        16.34459         1.30057
C         17.20343        17.06844         1.05791
C         18.40658        19.18971         0.35022
C         17.17990        18.47001         0.55581
C         18.39112        20.48194        -0.26887
C         17.14209        21.12873        -0.55866
C         18.27334        23.20567        -1.21737
C         17.06671        22.48729        -0.96198
C         18.24840        24.56961        -1.51606
C         17.01538        25.28387        -1.58332
C         18.19345        27.42354        -2.09250
C         17.00059        26.71296        -1.86562
C         18.18297        28.86069        -2.18758
C         16.95395        29.54746        -2.22078
C         19.74931         4.14187        -0.05371
C         20.99212         6.26623         0.24687
C         19.77847         5.56649         0.12306
C         21.00705         7.64694         0.44781
C         19.81926         8.38373         0.59850
C         20.89681        10.61240         0.33354
C         19.84517         9.82525         0.77350
C         20.88637        12.03354         0.41964
C         19.82558        12.74122         0.95129
C         21.01516        14.97399         0.89854
C         19.79097        14.19975         1.01766
C         21.02886        16.32884         0.95979
C         19.80422        17.11565         1.17144
C         20.91008        19.23173         0.14149
C         19.71683        18.60743         0.70626
C         20.83090        20.43165        -0.51909
C         19.60065        21.11849        -0.65136
C         20.74503        23.34084        -0.92270
C         19.58692        22.45804        -1.34675
C         20.74256        24.64358        -1.23325
C         19.52888        25.25243        -1.83541
C         20.71441        27.54372        -2.11451
C         19.49479        26.73584        -2.17963
C         20.64587        28.91937        -2.14461
C         19.40758        29.58013        -2.22368
O         16.01920         7.32309        -1.06944
O          3.01670        10.04402        -3.02408
O         16.64688        14.22673        -0.18132
O         11.63661         9.97778         2.52656
O         12.03472        16.72661         2.96928
O          5.81741        17.19136        -0.57269
O         11.13010        20.54034        -0.69442
O          2.75999        25.71231         2.61391
O         18.09545         9.82952         2.53774
O          9.42488         8.81802         1.98851
O          5.11037         8.49897        -2.70523
O         10.35956        26.75743         1.45046
O         11.77830         8.45429        -0.72719
O         10.81787        12.50389        -0.12496
O          8.63072        29.16358         0.68113
O          5.03023        26.94120         2.30411
O          5.01324         5.97609         0.17072
O         15.07893        20.38769        -1.69498
O          7.19633         4.52796         0.47245
O         19.61081        25.66592        -3.23110
O         13.56875        24.69830        -2.40293
O          9.90215        17.91454         3.25318
O         18.14504        12.47098         2.76605
O          1.26943        19.60010         3.26998
O          8.19997        25.62386         2.30341
O         19.91133        18.19853         2.12040
O         17.72333        16.84186         2.42336
O          8.49632        20.20521         2.99545
O          3.46112        11.12401         0.57410
O         12.30392        13.26356         3.08037
O         14.41099        17.85917        -1.25915
H         14.49055        18.68761        -1.79937
O          7.98325        16.06414         3.30977
H          8.35458        16.77949         3.87802
O          2.40326        23.25050         3.68919
H          2.43545        24.23707         3.75353
O          5.26546        14.80998        -1.67253
H          5.47855        15.78070        -1.68423
O          6.68857        12.54482        -1.73620
H          6.36773        13.45875        -1.96073
O         19.78217        22.18053        -2.77114
H         19.72700        23.03612        -3.24991
O          2.34403        17.92536        -0.81496
H          2.30609        17.21899        -1.49503
O          3.49764        30.02714         1.11824
H          4.20068        29.69514         1.71764
O         13.58684         5.90047         2.11891
H         13.45741         4.93132         2.21028
O          8.93189         3.38353        -2.61538
H          9.25489         4.23818        -2.96741
H          1.57708         2.89586        -3.44940
H         -0.44057         4.24859        -3.95483
H         -0.51030         6.67218        -3.47679
H         -0.65914         8.46914        -2.56513
H         -0.73623        10.77316        -1.84090
H         -0.82170        12.61569        -1.23257
H         -0.89942        14.90538        -0.37130
H         -0.81710        16.11807         1.30441
H         -0.73502        18.11945         2.78727
H         -0.86600        21.06593         2.97536
H         -1.00214        23.23373         1.73153
H         -0.87015        24.67405         0.23913
H         -0.84979        26.92285        -0.77281
H          0.25050        28.98000        -1.41127
H          3.91665         2.78539        -2.74844
H          2.21760        30.46481        -1.36855
H          6.27995         2.67975        -2.09656
H          4.67330        30.39804        -1.50428
H          8.68004         2.46909        -0.78826
H          6.99294        30.15261        -2.07706
H         11.15151         2.47786        -0.82072
H          9.53865        30.43619        -2.15575
H         13.57030         2.37646        -0.30465
H         11.99700        30.55532        -2.25441
H         16.08358         2.37147        -0.30532
H         14.47077        30.59669        -2.36963
H         18.57011         2.35780        -0.23058
H         16.94681        30.64077        -2.33663
H         20.70682         3.60346        -0.11051
H         21.94120         5.71444         0.18759
H         21.97482         8.16046         0.53564
H         21.76589        10.13752        -0.14251
H         21.74932        12.57224         0.00415
H         21.96735        14.43737         0.78697
H         21.99056        16.85924         0.92871
H         21.88931        18.76685         0.31399
H         21.74683        20.87895        -0.92898
H         21.62733        22.89099        -0.44413
H         21.61090        25.27882        -1.00460
H         21.68834        27.03734        -2.14712
H         21.57224        29.51076        -2.13898
H         19.37703        30.67660        -2.28897
