         252
 CSIRO Nanostructure Databank - Neutral Graphene Oxide Data Set
C         30.49385        31.76804         1.63756
C         30.63042        32.93683         2.03434
C         30.69479        36.17126         2.01716
C         30.45378        37.41197         2.05254
C         30.46621        40.26128         0.62770
C         30.28727        41.44956         0.26513
C         32.72152        29.10114         0.16726
C         31.65488        29.71070         0.46382
C         32.35779        31.95449         0.25619
C         31.31820        31.04557         0.71392
C         32.73314        33.15631         0.85098
C         31.85623        33.80869         1.94967
C         32.95098        35.96967         1.28001
C         31.65862        35.24807         1.59144
C         32.79605        37.25723         0.45715
C         31.27663        38.57431         2.31132
C         32.81459        40.34975         1.25401
C         31.46599        39.59546         1.38878
C         32.73380        41.75148         0.48897
C         31.43922        42.14042        -0.39073
C         32.64736        44.15220        -0.85772
C         31.55045        43.64481        -0.55751
C         35.49157        27.37981         0.65971
C         35.27627        28.74280         0.54281
C         34.09323        29.46063         0.17147
C         35.31365        31.65087         0.26030
C         34.23279        30.84404        -0.12587
C         35.23624        33.07335         0.24088
C         34.00097        33.79051         0.49722
C         35.22996        35.95486         0.34836
C         34.06460        35.19380         0.62393
C         35.23268        37.34848         0.48628
C         34.00976        38.12683         0.60376
C         35.30406        40.26475         0.58267
C         33.98806        39.50225         0.69933
C         35.19849        41.53608        -0.27462
C         34.00876        42.43335         0.06034
C         35.19675        44.32144        -1.05294
C         34.01139        43.74011        -0.71228
C         35.52915        45.62426        -1.55270
C         37.88597        27.31643         0.31064
C         36.63639        26.80799         0.56598
C         37.93344        28.76818         0.63920
C         36.55053        29.49249         0.77979
C         37.86901        31.73390         0.32005
C         36.56074        30.98840         0.65481
C         37.69179        33.12543        -0.12264
C         36.48145        33.78375         0.03388
C         37.73805        35.96655        -0.08888
C         36.40826        35.26150        -0.30937
C         37.76570        37.32587         0.24015
C         36.53478        38.06279         0.70271
C         37.76881        40.20384         0.25430
C         36.48401        39.42527         0.03272
C         37.70265        41.64276         0.10487
C         36.52657        42.26058        -0.25223
C         37.81837        44.36471        -0.91836
C         36.51731        43.61827        -0.84067
C         37.89394        45.89692        -1.09692
C         36.57770        46.24553        -1.77926
C         40.06775        24.97948        -1.57478
C         38.99943        25.46299        -1.11465
C         40.33782        27.35119        -0.28516
C         39.11113        26.52566         0.01242
C         40.44502        28.77667         0.24753
C         39.13146        29.54682         0.22656
C         40.18091        31.61488        -0.62904
C         39.09368        30.93966        -0.01215
C         40.12810        33.06266        -0.94606
C         38.80470        33.84426        -0.85296
C         40.17592        35.97153        -0.23341
C         38.94449        35.28953        -0.37348
C         40.19662        37.34781         0.10620
C         38.98113        38.04954         0.25579
C         40.22951        40.24510         0.36824
C         38.96449        39.51504         0.35079
C         40.22193        41.66045         0.38925
C         38.92817        42.46046         0.46657
C         40.21463        44.47733        -0.27223
C         39.03896        43.77723        -0.30118
C         40.41482        45.76436        -0.97265
C         39.18449        46.18739        -1.87311
C         40.38170        48.36377        -2.04701
C         39.38706        47.64446        -2.15347
C         42.64863        24.92682        -1.89325
C         41.39991        25.42524        -1.48862
C         42.77676        27.36419        -0.67330
C         41.48653        26.72203        -0.77632
C         42.77797        28.78760        -0.66493
C         41.55860        29.48039        -0.48775
C         42.76243        31.63321        -1.20049
C         41.42070        30.86436        -0.92209
C         42.77374        33.14357        -1.13217
C         41.43568        33.83609        -0.95454
C         42.77487        35.92534        -0.17684
C         41.45949        35.20912        -0.35054
C         42.71729        37.41820        -0.05444
C         41.47389        38.04042         0.55851
C         42.67568        40.28644         0.51154
C         41.46483        39.55867         0.41262
C         42.67364        41.70395         0.49797
C         41.42298        42.37709         0.50265
C         43.12317        44.49200        -0.54019
C         41.20071        43.86648         0.71381
C         42.87319        45.94978        -0.43670
C         41.57584        46.48795        -0.92602
C         42.89454        48.60978        -1.34384
C         41.48257        48.24890        -1.08598
C         43.78356        25.49783        -1.85148
C         45.31212        27.29975        -0.80329
C         44.03318        26.51540        -0.69332
C         45.31504        28.81438        -0.72030
C         44.01744        29.53923        -0.78899
C         45.32681        31.61467        -1.03956
C         44.02317        30.90269        -0.95488
C         45.37562        33.12854        -1.02417
C         44.07241        33.90301        -1.04314
C         45.25826        36.00177        -0.42393
C         44.08468        35.31918        -0.56939
C         45.27664        37.38380         0.14251
C         44.00032        38.16547         0.08778
C         45.26543        40.23320         1.01080
C         43.94889        39.52358         0.72271
C         45.21492        41.73304         1.13994
C         43.95475        42.46451         0.72373
C         45.36320        44.62783         0.37224
C         44.08045        43.87679         0.25576
C         45.44425        46.07957        -0.11591
C         44.14712        46.80367        -0.28378
C         43.92944        48.13012        -0.86947
C         47.58603        27.44940         0.12066
C         46.56745        26.83356        -0.20213
C         47.64593        28.87375         0.49582
C         46.52556        29.58898        -0.25140
C         47.80106        31.73004        -0.83314
C         46.55206        30.91603        -0.56881
C         47.79257        33.16436        -0.39511
C         46.59784        33.82711        -0.53201
C         47.87752        36.03829        -0.35183
C         46.57186        35.30823        -0.56786
C         47.88633        37.57310        -0.20476
C         46.56882        38.14943         0.33896
C         47.77109        40.39462         0.59025
C         46.52403        39.61027         0.57913
C         47.80840        41.78319         1.09194
C         46.53237        42.48425         1.26392
C         47.88147        44.66200         0.98435
C         46.54892        44.00691         1.06286
C         47.69472        46.03123         0.63670
C         46.69735        46.72290         0.34626
C         50.14749        28.86544         1.19926
C         48.82022        29.49917         1.19617
C         50.14155        31.59815         0.63767
C         49.05150        30.98570         1.20088
C         50.16653        33.06820         0.46466
C         49.02205        33.83594         0.04932
C         50.26737        35.94592         0.45178
C         49.06818        35.25053         0.08429
C         50.30375        37.37480         0.61458
C         48.98772        38.10376         0.73829
C         50.29709        40.30197         1.14699
C         49.09869        39.62721         0.60116
C         50.29731        41.71988         1.31880
C         49.02860        42.45713         1.24257
C         50.34425        44.42338         1.45372
C         49.01931        43.93143         1.27545
C         51.16940        29.39506         0.75889
C         52.56192        31.57946         0.90573
C         51.43547        30.77754         0.23783
C         52.46173        32.81621         0.87907
C         51.38898        33.75066         0.68855
C         52.58315        35.98043         0.90713
C         51.45919        35.15409         0.65801
C         52.60229        37.22256         1.05155
C         51.47095        38.08265         0.97115
C         52.57228        40.28913         1.62851
C         51.46968        39.49714         1.26942
C         52.63704        41.53926         1.79335
C         51.54732        42.40686         1.61422
C         51.41484        43.82778         1.68074
O         37.35382        31.60460         1.69243
O         33.16497        31.47784        -0.79701
O         46.41535        43.41974         2.37789
O         43.39613        33.74264        -2.32367
O         42.17666        35.19002         0.94199
O         31.93208        37.43387        -0.37401
O         40.73660        33.57384        -2.20154
O         37.31950        29.06662         1.93680
O         41.96781        31.10673        -2.27353
O         41.54945        44.45447         1.71928
O         45.73794        45.02348        -1.04620
O         33.39994        42.70782         1.35538
O         43.29727        38.10946        -1.19688
O         48.66768        31.25259        -1.54108
O         47.67324        29.09253         1.95777
O         47.41549        35.72248        -1.71245
O         45.56885        32.38187        -2.26256
O         45.54784        28.06313        -1.98957
O         44.29928        42.24248         2.14260
O         48.62800        40.23939        -0.61328
O         37.34583        43.64525        -2.09966
O         45.94654        37.38096         1.43793
O         44.48886        39.54429         2.06661
O         43.28586        46.56681         0.84731
O         41.09100        48.69092         0.16620
H         41.81669        48.53979         0.80925
O         35.70068        40.73396         1.89665
H         36.08285        39.95757         2.37954
O         48.02320        31.68255         1.76665
H         47.44152        31.02030         2.21380
O         40.84934        28.71215         1.66343
H         40.12781        28.27544         2.16543
O         39.25579        45.40573        -3.04448
H         38.35350        45.12830        -3.31429
O         39.38595        25.72386         1.17452
H         38.56025        25.26145         1.43431
O         32.09660        38.41470         3.36532
H         32.68617        39.21505         3.42269
O         36.39144        39.09950        -1.36103
H         35.99967        39.85673        -1.85921
O         32.59769        33.74946         3.19634
H         31.97580        33.94658         3.92878
O         38.72065        42.79788         1.86942
H         39.49616        43.30802         2.19158
O         51.61031        30.79142        -1.13687
H         52.42733        30.31267        -1.38091
O         44.13178        25.73226         0.48062
H         43.29162        25.25092         0.63049
O         37.95609        46.49892         0.17810
H         38.15363        47.45384         0.07251
O         48.52482        37.83904         2.08711
H         49.25324        38.01565         2.71825
O         36.66964        38.24924         2.15130
H         36.35931        37.43260         2.59801
O         34.89153        41.17029        -1.65137
H         34.89877        41.98254        -2.20264
O         31.67169        41.56845        -1.65787
H         30.82662        41.51107        -2.14872
O         48.10835        38.10157        -1.51327
H         47.81955        37.42370        -2.16912
O         42.38956        43.82936        -1.47576
H         42.71605        42.91401        -1.58979
O         36.10002        35.37485        -1.72503
H         36.81192        34.88829        -2.21592
O         33.50642        36.36471         2.57411
H         33.49239        35.55260         3.13654
O         38.30143        33.92213        -2.22783
H         39.08683        34.05744        -2.81248
O         33.19581        40.64221         2.61457
H         34.07555        41.10572         2.59226
O         41.59092        37.76829         1.98129
H         40.82633        38.17182         2.44244
