         349
 CSIRO Nanostructure Databank - Neutral Graphene Oxide Data Set
C          1.53777         3.60608        -0.82801
C          0.51172         4.26132        -1.56246
C          1.89336         6.30006        -1.75093
C          0.67182         5.53284        -2.03974
C          1.76081         7.79668        -1.46592
C          0.49338         8.53570        -1.68559
C          1.16325        10.36782        -0.17513
C          0.24548         9.75047        -1.16138
C          1.06958        11.81386         0.18662
C         -0.18474        12.34694         0.44400
C          0.87759        14.37242         1.21398
C         -0.27452        13.61786         1.03007
C          0.87071        16.67270         1.28084
C         -0.28803        17.40230         1.08283
C          1.02852        19.33800         0.46874
C         -0.21089        18.71077         0.58076
C          1.07132        20.74698         0.13348
C          0.01614        21.42581        -0.46498
C          1.20967        23.58507        -0.48490
C          0.06697        22.81305        -0.72070
C          1.23857        25.02544        -0.68299
C          0.08139        25.76389        -1.03771
C          1.32301        27.86155        -1.01612
C          0.12021        27.14150        -1.19331
C          1.38395        29.28605        -1.17717
C          3.81349         3.47796         0.03177
C          2.78270         4.19534        -0.60546
C          4.28594         6.32071        -0.62591
C          3.13234         5.49367        -1.32876
C          3.91530         7.73674        -0.20406
C          2.76219         8.38694        -0.55914
C          3.57226        10.50332         0.72539
C          2.44510         9.67568         0.11006
C          3.53323        11.97559         0.40083
C          2.25425        12.60023         0.39644
C          3.36159        14.82585         0.75311
C          2.16826        13.98411         0.75768
C          3.33781        16.29128         0.87873
C          2.18850        17.13050         0.94870
C          3.46715        19.24549         0.81994
C          2.25035        18.58377         0.74895
C          3.52926        20.72443         0.76345
C          2.28658        21.51253         0.44584
C          3.59893        23.60718         0.12695
C          2.39888        22.92667         0.00075
C          3.66376        25.02062        -0.16137
C          2.45903        25.72903        -0.49258
C          3.73475        27.85697        -0.51353
C          2.50983        27.14761        -0.67235
C          3.78097        29.27985        -0.69546
C          2.55989        29.96877        -1.02091
C          6.15451         3.44472         0.78266
C          4.99253         4.12868         0.47331
C          6.10773         6.33933         1.11350
C          4.81970         5.61990         0.67332
C          6.16304         7.81453         0.97739
C          4.96684         8.49187         0.44558
C          6.09762        10.67040         0.52844
C          4.90999         9.86799         0.52700
C          5.99612        12.05520         0.42957
C          4.70791        12.74419         0.46070
C          5.82837        14.96369         0.15842
C          4.60669        14.18049         0.52637
C          5.93582        16.37319         0.63172
C          4.64536        16.97534         1.07245
C          5.98586        19.24009         1.30381
C          4.67439        18.49862         1.18215
C          6.01599        20.72924         1.13762
C          4.84200        21.39804         0.42164
C          6.11539        23.50754         0.26010
C          4.80723        22.91220         0.73976
C          6.14484        24.97068        -0.08511
C          4.88107        25.72222        -0.10488
C          6.17250        27.83386        -0.10031
C          4.93866        27.14173        -0.23364
C          6.20773        29.27145        -0.23627
C          4.99647        29.95922        -0.56465
C          8.69266         3.39704         0.97990
C          7.40263         4.10020         1.16371
C          8.61229         6.33107         0.68600
C          7.42434         5.62314         1.18611
C          8.62489         7.72135         0.49060
C          7.48804         8.56936         1.04283
C          8.50110        10.58864        -0.01497
C          7.38658         9.96230         0.44494
C          8.40324        12.04150        -0.34373
C          7.28204        12.83706         0.34366
C          8.35340        15.04701        -0.41905
C          7.08847        14.24302        -0.22190
C          8.32440        16.55091        -0.10124
C          7.12645        17.04122         0.70226
C          8.53111        19.17715         0.94175
C          7.27728        18.40353         1.39805
C          8.62645        20.65408         1.10833
C          7.32764        21.47410         1.14940
C          8.57917        23.52595         0.46954
C          7.37439        22.85790         0.65948
C          8.60123        24.95898         0.23816
C          7.41139        25.68511         0.07585
C          8.62491        27.80205         0.26252
C          7.40752        27.11301         0.10145
C          8.61499        29.28435         0.53086
C          7.40408        29.96435        -0.03514
C         11.11104         3.42004         0.69989
C          9.82822         4.08145         0.66900
C         11.03629         6.23986         0.08016
C          9.73314         5.49334         0.11407
C         11.00495         7.61686        -0.07034
C          9.79797         8.38635         0.05744
C         10.97180        10.52868        -0.80369
C          9.86010         9.91261         0.07599
C         10.95698        12.07317        -0.97889
C          9.63526        12.79500        -0.75066
C         10.91886        14.98251        -0.24649
C          9.65038        14.30417        -0.59484
C         10.87505        16.33659         0.15362
C          9.67327        17.06481         0.36986
C         10.98747        19.19295         0.72666
C          9.69010        18.46528         0.64969
C         10.98755        20.61960         0.31146
C          9.80134        21.39945         0.62899
C         11.06770        23.48790         0.21176
C          9.82813        22.78856         0.46787
C         11.07691        24.93799         0.18969
C          9.84606        25.65948         0.24813
C         11.09748        27.78871         0.20178
C          9.85233        27.08623         0.25313
C         11.09185        29.24346         0.08682
C          9.90877        29.94768         0.16284
C         13.54787         3.36332         0.38587
C         12.28202         4.04413         0.35662
C         13.57352         6.14695        -0.03711
C         12.26755         5.41660        -0.26594
C         13.55454         7.57387        -0.40634
C         12.24896         8.31705        -0.44434
C         13.46149        10.25358        -1.10742
C         12.25535         9.78768        -0.66625
C         13.48759        12.41043        -1.15319
C         12.18054        12.89821        -0.83365
C         13.40077        14.86174        -0.04618
C         12.15714        14.25080        -0.34548
C         13.48235        16.30593        -0.03746
C         12.16259        17.06833         0.10523
C         13.55307        19.18190         0.31220
C         12.27921        18.46644         0.58360
C         13.57380        20.60348         0.26126
C         12.30203        21.32674         0.07496
C         13.54430        23.45939         0.05936
C         12.29821        22.79405         0.13598
C         13.56183        24.92370        -0.28518
C         12.28716        25.64850         0.08788
C         13.57542        27.77180        -0.02955
C         12.30247        27.06699         0.12113
C         13.55826        29.23010        -0.15190
C         12.34702        29.91377        -0.11052
C         15.96896         3.23384         0.02478
C         14.75731         4.02067         0.28198
C         16.00534         6.28725         0.24902
C         14.76219         5.49871         0.22048
C         16.00597         7.70376        -0.11104
C         14.81071         8.33562        -0.35343
C         15.98626        10.55734        -0.67699
C         14.70905         9.82701        -0.37470
C         15.97123        12.06767        -0.96564
C         14.68368        12.81416        -0.60017
C         15.92358        14.87843         0.11216
C         14.64758        14.06003         0.26319
C         15.94693        16.24877         0.24511
C         14.73873        17.02634         0.23185
C         16.03586        19.18306         0.00089
C         14.74763        18.43056         0.24833
C         16.04840        20.60358         0.58817
C         14.76980        21.34161         0.28157
C         16.04131        23.46580        -0.01419
C         14.76765        22.75489         0.12887
C         16.07142        24.85447        -0.10300
C         14.80293        25.61101         0.27240
C         15.99400        27.78602        -0.47542
C         14.76348        27.08433        -0.06355
C         16.02170        29.26281        -0.32271
C         14.79833        29.93273        -0.21749
C         18.51250         3.22643        -0.04052
C         17.20274         3.61003         0.46414
C         18.48379         6.44070         0.51608
C         17.19025         5.80315         0.74304
C         18.47737         7.81957         0.00823
C         17.23310         8.47336        -0.16315
C         18.47529        10.58362        -0.57215
C         17.19460         9.88430        -0.48915
C         18.49814        11.99910        -0.56355
C         17.19836        12.68626        -0.30895
C         18.47666        14.86710         0.03619
C         17.20020        14.13076         0.08639
C         18.50218        16.23130         0.29941
C         17.23095        16.94906         0.52090
C         18.54683        19.15673         0.34345
C         17.25898        18.44806         0.49553
C         18.55022        20.56874         0.16934
C         17.30299        21.32593         0.13475
C         18.51781        23.41564        -0.41558
C         17.26771        22.68434        -0.11990
C         18.50994        24.89054        -0.39451
C         17.31619        25.56743        -0.32520
C         18.58165        27.79903        -0.81567
C         17.26791        27.02605        -0.65816
C         18.50101        29.24305        -0.31287
C         17.26356        29.92162        -0.23390
C         19.58096         4.06261        -0.12399
C         20.77867         6.22429        -0.56528
C         19.70210         5.52335         0.14462
C         20.81921         7.58988        -0.67225
C         19.69384         8.42919        -0.37852
C         20.90656        10.59105        -0.71754
C         19.70075         9.86212        -0.59528
C         20.90710        11.97831        -0.71525
C         19.70849        12.70578        -0.56547
C         20.94835        14.86146         0.03992
C         19.71667        14.22353        -0.55112
C         20.94493        16.17808         0.38057
C         19.73443        16.96236         0.36558
C         20.97731        19.13353         0.41615
C         19.75390        18.40904         0.41282
C         20.98971        20.51330         0.30085
C         19.79708        21.24593         0.12657
C         20.97364        23.52934         0.25252
C         19.83996        22.68816        -0.19655
C         20.95373        24.86420         0.12306
C         19.84400        25.59607        -0.61175
C         21.01581        27.86134        -0.31132
C         19.74949        27.05886        -0.13683
C         20.95852        29.21893        -0.24015
C         19.70725        29.90961        -0.11982
O          8.08268        21.20153         2.35690
O          6.13581        23.90470        -1.15126
O          5.86043         7.17913         2.29432
O          8.94275        14.89538        -1.75208
O          2.28429         7.28668        -2.75968
O         12.82172         7.72663        -1.72255
O          6.13209        14.57420        -1.25378
O         16.41009        27.28607        -1.82626
O          2.76954        21.33932         1.85233
O         12.77847        16.92823        -1.19390
O         11.74865        18.80973         1.91575
O          8.62763        12.38436        -1.73021
O         19.33501        22.93608        -1.55871
O          4.59464        17.64524         2.37582
O         13.54450        11.30416        -2.02116
O         17.12178        12.99882         1.11582
O          7.48621         4.86030         2.44133
O          5.77191        20.15498         2.44655
O         11.49974        20.79934        -1.05746
O         17.13871        17.74015         1.76180
O          0.72197        15.50006         2.01185
O         19.49335         6.05566         1.48703
O         17.23521         4.60999         1.46010
O         10.77604        11.12892        -2.09284
O          1.30825         9.52491         1.04893
O         12.14788         5.17162        -1.71864
H         12.34464         6.04987        -2.14328
O          3.39704        10.46652         2.17901
H          2.45317        10.21433         2.33430
O          7.49520        18.11856         2.79642
H          7.17422        18.90152         3.30118
O          7.73952        13.09856         1.70708
H          7.68270        12.26364         2.21962
O         19.46325        26.98496         1.28875
H         19.57925        27.88437         1.66263
O         18.87749        27.90195        -2.21805
H         18.01462        27.89904        -2.69286
O          3.81162         5.79178         1.68419
H          4.19377         6.38301         2.37734
O         19.70996        14.59822        -1.98179
H         19.79016        15.57511        -2.02915
O          4.78612        23.09475         2.16566
H          4.02202        22.57517         2.51832
O          5.03655        21.21372        -0.99921
H          5.41147        22.03470        -1.39352
O         14.55944        13.66324         1.66846
H         15.42312        13.23588         1.89043
O         16.12424        20.45810         2.03067
H         16.02483        21.34407         2.43613
O          7.83300         8.80566         2.44021
H          7.32493         8.13908         2.96708
O          9.38814         5.29775        -1.31545
H         10.24280         5.07607        -1.76898
O         16.16681        12.24042        -2.39455
H         15.38125        11.85027        -2.84167
O         20.16209        25.56756        -2.01534
H         20.03714        24.63501        -2.31229
O         16.19079        19.27779        -1.43717
H         15.37692        19.67545        -1.81257
O         10.31521        10.24146         1.43561
H          9.69085         9.80343         2.06260
O          3.67496         5.01887        -2.59758
H          3.41341         5.67328        -3.28442
O          5.40474         6.42854        -1.51799
H          5.23923         5.78289        -2.25159
O          8.11401        17.24366        -1.37368
H          8.49706        16.65863        -2.07299
O         13.66253        25.00128        -1.73676
H         12.89010        24.53732        -2.12236
O         14.70706        25.51467         1.72662
H         15.47771        25.97606         2.11820
O          8.48216        29.43090         2.01335
H          7.67328        28.94272         2.27926
O         14.38525        10.20220         1.03837
H         15.19231        10.04791         1.57633
H          1.33670         2.61150        -0.40470
H         -0.43175         3.72776        -1.74439
H         -0.13865         6.02435        -2.59474
H         -0.20991         8.11175        -2.41658
H         -0.67055        10.29324        -1.43820
H         -1.08853        11.74207         0.29048
H         -1.23434        14.00232         1.39651
H         -1.25403        16.97038         1.37278
H         -1.13790        19.27217         0.40771
H         -0.90151        20.88762        -0.73979
H         -0.83430        23.28528        -1.13438
H         -0.87522        25.24430        -1.18514
H         -0.79711        27.68625        -1.45990
H          0.46068        29.82591        -1.43410
H          3.68355         2.39989         0.21494
H          2.59005        31.06022        -1.15251
H          6.21160         2.37460         0.52710
H          5.02554        31.05119        -0.69550
H          8.74352         2.33243         1.25830
H          7.41071        31.06210        -0.11782
H         11.13986         2.38258         1.06985
H          9.91896        31.04281         0.05264
H         13.54255         2.26924         0.50762
H         12.34672        31.01162        -0.19053
H         15.87010         2.36238        -0.64081
H         14.78921        31.03171        -0.15797
H         18.62347         2.20922        -0.44879
H         17.26981        31.00607        -0.03941
H         20.48534         3.64130        -0.59562
H         21.58315         5.62155        -1.01324
H         21.69716         8.04827        -1.15001
H         21.86505        10.05649        -0.76988
H         21.86622        12.50711        -0.79936
H         21.89205        14.29927         0.07489
H         21.88489        16.64681         0.70583
H         21.93495        18.60088         0.48482
H         21.95552        21.03715         0.27956
H         21.80793        23.03982         0.77719
H         21.80195        25.45287         0.50344
H         21.98336        27.35046        -0.41906
H         21.88312        29.81394        -0.27431
H         19.70755        30.98957         0.09144
