         244
 CSIRO Nanostructure Databank - Neutral Graphene Oxide Data Set
C          1.25252         2.09897         0.89321
C          1.20781         3.46893         0.85653
C          2.48002         1.40089         0.91029
C          2.45565         4.29955         0.98385
C          1.24043         6.49116         0.69128
C          1.28966         7.83636         0.56634
C          2.37494         5.62383         0.20768
C          2.48482         8.51743         0.12782
C          1.35618        10.83465         0.33853
C          1.33545        12.15164         0.08910
C          2.39548         9.96163        -0.33392
C          2.31632        12.77796        -0.87486
C          1.31997        15.11710        -0.53646
C          1.36269        16.51073        -0.66916
C          2.43697        14.29768        -0.80019
C          2.48038        17.13190        -1.26264
C          2.66645        18.57828        -1.39240
C          3.71525         2.08995         0.77260
C          3.71420         3.52226         0.66390
C          4.92957         1.37908         0.67503
C          4.90217         4.21195         0.39608
C          3.69714         6.37142         0.16824
C          3.66867         7.80489        -0.03822
C          4.89241         5.65723         0.16128
C          4.89611         8.50055        -0.43818
C          3.74048        10.70632        -0.17046
C          3.64698        12.07082        -0.81575
C          4.91534         9.85170        -0.60621
C          4.87729        12.73786        -1.19352
C          3.60981        14.92092        -1.28752
C          3.49550        16.25666        -1.68333
C          4.94419        14.24262        -1.42489
C          5.39133        17.28286        -1.58993
C          3.85570        19.25188        -1.40828
C          5.19481        18.68236        -1.25646
C          6.15800         2.06024         0.51747
C          6.13853         3.49152         0.36736
C          7.39209         1.36233         0.50416
C          7.36960         4.19941         0.25589
C          6.15048         6.31457        -0.12053
C          6.16281         7.70961        -0.72587
C          7.33930         5.62987         0.00704
C          7.41423         8.49134        -0.34686
C          6.17699        10.52291        -1.10384
C          6.11402        12.00704        -0.79739
C          7.42440         9.89388        -0.52180
C          7.34596        12.78016        -0.54920
C          6.23083        14.97924        -1.03526
C          6.27988        16.45000        -0.95831
C          7.33265        14.26753        -0.62327
C          7.38187        17.16563        -0.26857
C          6.27100        19.36473        -0.73074
C          7.50763        18.64659        -0.46946
C          8.61922         2.05960         0.44816
C          8.58271         3.48879         0.34314
C          9.87686         1.39869         0.54849
C          9.84118         4.22711         0.50604
C          8.62229         6.31506        -0.40412
C          8.62034         7.80795        -0.18867
C          9.83886         5.70348         0.24918
C          9.85301         8.50738        -0.14519
C          8.62215        10.61002        -0.45900
C          8.64470        12.06299        -0.87423
C          9.84976         9.92340        -0.26699
C          9.87024        12.80505        -0.40913
C          8.52788        14.85434         0.12584
C          8.59377        16.37822         0.12986
C          9.85168        14.18050        -0.18757
C          9.89212        17.05789         0.12106
C          8.70212        19.26912        -0.25409
C         10.00473        18.51002        -0.25793
C         11.11707         2.09625         0.56026
C         11.12457         3.52092         0.50289
C         12.36666         1.42864         0.70258
C         12.33656         4.24556         0.47271
C         11.13841         6.38939         0.10769
C         11.11502         7.80540        -0.05433
C         12.33308         5.69316         0.29786
C         12.33264         8.51455        -0.06484
C         11.09503        10.64405        -0.28065
C         11.08800        12.07502        -0.29838
C         12.32153         9.94861        -0.16827
C         12.30183        12.77141        -0.09157
C         11.06282        14.88177         0.08893
C         11.07498        16.31678         0.23936
C         12.30024        14.18877         0.11861
C         12.30782        16.98735         0.53590
C         11.18524        19.16555         0.41261
C         12.30820        18.43231         0.70291
C         13.56027         2.14957         0.77853
C         13.56251         3.55286         0.61970
C         14.84792         1.47773         1.19936
C         14.85076         4.31976         0.82767
C         13.58331         6.39880         0.19322
C         13.57691         7.81059         0.00646
C         14.82090         5.71778         0.26685
C         14.81525         8.49650        -0.16518
C         13.54657        10.66910        -0.12565
C         13.52247        12.05273        -0.07661
C         14.88435         9.98584         0.03063
C         14.78616        12.82131        -0.01414
C         13.49291        14.85892         0.51850
C         13.47314        16.23073         0.78157
C         14.73574        14.05407         0.85851
C         14.67215        16.83023         1.47401
C         13.55485        19.05186         1.14318
C         14.66740        18.33934         1.44223
C         16.08125         2.14700         0.63610
C         16.07845         3.54530         0.42703
C         17.25623         1.41640         0.47846
C         17.24860         4.22269         0.01264
C         16.01499         6.37997        -0.10547
C         15.99667         7.79277        -0.35783
C         17.24583         5.64248        -0.21353
C         17.18444         8.47440        -1.02235
C         15.95483        10.68182        -0.84100
C         16.04473        12.14352        -0.40570
C         17.30005         9.98323        -0.80384
C         17.35955        12.68804         0.05448
C         16.01385        14.85657         0.75119
C         15.98675        16.20120         1.02531
C         17.29841        14.13977         0.57470
C         17.21489        16.95945         1.12385
C         15.91148        19.02074         1.95640
C         17.19542        18.32502         1.54760
C         18.47349         2.06448         0.14803
C         18.47218         3.47032        -0.10910
C         19.70179         1.34738         0.08995
C         19.69044         4.11844        -0.41649
C         18.44821         6.34040        -0.58676
C         18.45781         7.69993        -0.82866
C         19.68490         5.53499        -0.93494
C         19.66901         8.36786        -1.40770
C         18.49128        10.69323        -0.96090
C         18.57331        12.13642        -0.59019
C         19.69021         9.90099        -1.28989
C         19.70737        12.99916        -0.61796
C         18.51707        14.94109         0.45388
C         18.45521        16.33152         0.81618
C         19.70223        14.34083        -0.01636
C         19.66730        17.07896         0.92746
C         18.37768        19.03129         1.67619
C         19.63407        18.43081         1.38266
C         20.88630         2.00408        -0.16839
C         20.89715         3.40091        -0.42703
C         22.15388         4.10126        -0.65142
C         20.98527         6.27074        -0.65329
C         20.98279         7.74481        -0.94300
C         22.21513         5.44917        -0.73004
C         22.19786         8.43246        -1.42559
C         20.83801        10.41331        -1.83791
C         20.89645        12.71177        -1.37582
C         22.07395         9.66408        -1.97071
C         22.04354        13.48463        -1.34659
C         20.91466        15.13484         0.01265
C         20.91211        16.46775         0.60610
C         22.07521        14.66962        -0.59924
C         22.09304        17.19914         0.81744
C         20.84601        19.14238         1.55470
C         22.05607        18.51766         1.29267
O          6.54558        12.26256         0.58633
O         20.97868         7.25075         0.43383
O          4.49955        16.75291        -2.52259
O         17.44524        12.96914         1.47584
O          9.66741         5.23317         1.61478
O         20.91519        11.71075        -2.33725
O          4.98833        13.34222        -2.56627
O         15.37850        13.05718        -1.35455
O          6.37490         7.59947        -2.14644
O          7.62037        16.87015         1.15699
O         16.89898         8.32222        -2.47594
H         16.26212         9.04570        -2.71073
O         14.96539         4.46894         2.30521
H         14.20308         5.01254         2.60087
O          6.29780        10.31450        -2.53522
H          6.31028         9.30924        -2.64676
O          2.55441         4.66716         2.40002
H          2.63741         3.83923         2.91854
O         19.66343         5.38797        -2.39294
H         18.79958         5.00067        -2.64610
O          2.07816         9.84820        -1.74102
H          1.85041        10.74929        -2.08641
O          2.07086         5.26578        -1.17373
H          2.11046         6.08632        -1.71021
O          1.79131        12.54483        -2.24455
H          2.49150        12.83414        -2.87201
O         14.58779        13.62463         2.23471
H         14.49939        14.44676         2.77640
O          8.72492         6.14304        -1.84616
H          7.91342         6.60941        -2.21509
O         15.94603        20.40005         1.58467
H         16.06435        20.45393         0.61455
O          3.92239        10.94860         1.26548
H          4.81067        11.35549         1.38988
O          8.71102        12.05534        -2.33797
H          7.99072        11.45838        -2.66411
O         15.49509        10.64045        -2.21640
H         15.22596        11.56518        -2.44982
O         10.36618        18.48674        -1.71276
H         11.25516        18.07506        -1.78150
O         14.92627         1.57749         2.63790
H         14.99779         2.53986         2.84949
O         19.60040         8.10376        -2.84192
H         18.65002         8.20052        -3.10299
O         14.53224        16.42542         2.88846
H         15.31948        16.75506         3.37216
O          8.29636        14.44072         1.50534
H          7.71098        15.12497         1.90784
O         15.32669        10.19199         1.40208
H         14.62285         9.88125         2.00864
H          0.31546         1.52272         0.89476
H          0.23331         3.97757         0.85542
H          2.48278         0.30300         0.96473
H          0.31262         6.00937         1.03180
H          0.40133         8.43338         0.81982
H          0.63173        10.40553         1.04702
H          0.58930        12.79447         0.57916
H          0.39013        14.65775        -0.17416
H          0.50444        17.11498        -0.34255
H          1.74765        19.18677        -1.37604
H          4.92064         0.28158         0.74402
H          3.80538        20.35286        -1.40348
H          7.39154         0.26659         0.59768
H          6.21022        20.44039        -0.50799
H          9.88897         0.30209         0.64196
H          8.75881        20.36658        -0.32862
H         12.38294         0.33417         0.81376
H         11.20408        20.26233         0.50412
H         14.83433         0.38980         0.94048
H         13.59284        20.15104         1.20820
H         17.25720         0.33332         0.67179
H         15.86330        19.00291         3.08473
H         19.69605         0.26444         0.27971
H         18.34506        20.07518         2.02099
H         21.83570         1.44962        -0.18488
H         23.07629         3.50264        -0.68786
H         23.18967         5.95401        -0.79712
H         23.17341         7.92840        -1.38160
H         22.94169        10.18610        -2.39720
H         22.90468        13.18785        -1.95837
H         22.99564        15.26612        -0.59356
H         23.07326        16.74611         0.61869
H         20.81723        20.18106         1.91279
H         22.99903        19.06054         1.44706
