         252
 CSIRO Nanostructure Databank - Neutral Graphene Oxide Data Set
C         30.92558        31.95829        -2.60685
C         30.81285        33.11241        -2.20085
C         30.53154        36.25539        -1.41043
C         30.51419        37.48407        -1.36028
C         30.35277        40.59916        -0.41466
C         30.33839        41.60866         0.32423
C         32.89689        29.12979        -1.44540
C         31.96437        29.67645        -2.05092
C         33.15766        31.80244        -1.60047
C         32.13700        31.08699        -2.58770
C         33.03205        33.19748        -1.20838
C         31.67343        33.86620        -1.28616
C         32.74936        36.09080        -0.43319
C         31.52843        35.30047        -0.92793
C         32.85022        37.58665        -0.62874
C         31.63038        38.37806        -1.06294
C         32.74874        40.31674         0.12554
C         31.56244        39.82668        -0.70197
C         32.65814        41.55461         0.98935
C         31.35733        42.37708         0.91672
C         32.66561        44.21553         1.42393
C         31.50993        43.73030         1.20467
C         35.39530        27.44505        -0.28171
C         35.25583        28.85011        -0.53354
C         34.14872        29.58549        -0.93120
C         35.35722        31.70687        -0.47769
C         34.20885        31.04207        -1.03493
C         35.46650        33.21374        -0.68175
C         34.10112        33.89101        -0.65529
C         35.28899        36.13447         0.18641
C         34.01256        35.30170        -0.15459
C         35.34291        37.46837        -0.56411
C         34.03260        38.24229        -0.44493
C         35.26970        40.20082         0.56343
C         34.09702        39.77086        -0.37169
C         35.23486        41.68851         0.82492
C         33.98589        42.20093         1.53938
C         35.15183        44.44634         1.58639
C         33.97106        43.74618         1.51645
C         35.39522        45.82221         1.46343
C         37.66217        26.77746         0.10599
C         36.23522        26.67463         0.23854
C         37.76168        28.89160        -0.34401
C         36.50512        29.54795        -0.29102
C         37.68821        31.62844         0.46642
C         36.45770        30.96672        -0.05362
C         37.74402        33.13141         0.51761
C         36.41128        33.88644         0.33804
C         37.76406        35.98168        -0.18426
C         36.56720        35.34836        -0.00282
C         37.77568        37.47603        -0.10748
C         36.61487        38.20369        -0.15005
C         37.78028        40.30161         0.79667
C         36.62213        39.72452        -0.02238
C         37.77049        41.60759         1.17291
C         36.53029        42.46524         0.85130
C         37.73032        44.51439         1.61354
C         36.47616        43.68566         1.82109
C         37.74614        45.89100         1.39197
C         36.43571        46.50843         1.35397
C         39.87069        25.13892         2.53950
C         38.85210        25.56097         1.95670
C         40.05183        27.25416         0.77236
C         38.73908        26.56459         0.95046
C         40.13231        28.63715         0.32578
C         38.97288        29.42801         0.12408
C         40.26249        31.60696         0.30559
C         38.97997        30.86453         0.45828
C         40.24092        33.06935         0.02523
C         39.03137        33.79300         0.15370
C         40.18980        35.66555        -0.76770
C         38.99010        35.15559        -0.26649
C         40.20793        37.80085        -0.28669
C         39.02143        38.18345         0.23527
C         40.30647        40.11509         1.30569
C         38.98888        39.45962         1.00064
C         40.35758        41.58135         1.62278
C         39.00990        42.28397         1.71963
C         40.32142        44.57807         1.65556
C         39.01653        43.80270         1.79618
C         40.23611        45.99396         1.14795
C         38.95197        46.60153         1.13861
C         39.89210        48.66107         0.17485
C         39.02001        47.95755         0.71145
C         42.43337        25.20437         2.83120
C         41.20358        25.58011         2.27358
C         42.55743        27.14732         0.69350
C         41.23355        26.67698         1.30397
C         42.59962        28.63861         0.40646
C         41.42077        29.32795         0.28150
C         42.69826        31.52678         0.34599
C         41.44349        30.79065        -0.17942
C         42.71049        32.90993        -0.28552
C         41.48418        33.68324        -0.35764
C         42.63551        35.98702        -0.70801
C         41.46581        35.08277        -0.65714
C         42.73014        37.26136         0.16031
C         41.57585        38.32745        -0.01666
C         42.86922        40.22414         0.76301
C         41.64731        39.38692         1.10753
C         42.86797        41.59206         0.95563
C         41.68128        42.32417         1.52472
C         42.90860        44.71199         1.18747
C         41.65636        43.85776         1.57245
C         42.57545        45.95523         0.37011
C         41.37731        46.67576         0.63995
C         42.28287        48.54630        -0.76940
C         41.33851        48.26290         0.38741
C         43.50025        25.78926         2.39942
C         45.13679        27.17916         0.98304
C         43.83842        26.71899         1.48221
C         45.21287        28.53007         0.26590
C         43.91479        29.27816         0.06755
C         45.22686        31.54113         0.13515
C         43.95321        30.76721        -0.03907
C         45.22154        32.91457        -0.44692
C         43.89332        33.33952        -0.86493
C         45.16437        36.05544        -0.99322
C         43.82580        35.46784        -1.10773
C         45.22486        37.45880        -0.50680
C         44.02566        38.09650        -0.02919
C         45.37067        40.18722         0.41858
C         44.04131        39.46099         0.32524
C         45.26607        41.65796         0.08436
C         44.10919        42.35829         0.68217
C         45.11972        44.52481        -0.18688
C         44.09109        43.87046         0.65996
C         44.88109        45.87323        -0.59577
C         43.63241        46.52163        -0.38460
C         43.29569        47.82800        -0.84138
C         47.45766        27.46994         1.37175
C         46.41896        26.83908         1.63231
C         47.78040        28.74492         0.83756
C         46.55391        29.29023         0.03944
C         47.74780        31.56167         0.03091
C         46.51523        30.79773         0.26469
C         47.64552        33.03841         0.00598
C         46.37942        33.67795        -0.52859
C         47.73359        35.88320        -0.83609
C         46.40907        35.13789        -0.91216
C         47.69829        37.40101        -0.98074
C         46.46120        38.14301        -0.58763
C         47.72108        40.28068        -0.44573
C         46.53780        39.50666        -0.25081
C         47.63642        41.68134        -0.51740
C         46.39142        42.37582        -0.30879
C         47.40426        44.50364        -1.16383
C         46.30976        43.82423        -0.53407
C         47.09184        45.84120        -1.43689
C         45.99325        46.43061        -1.26517
C         50.22097        29.10673         1.35797
C         48.93514        29.45643         0.83686
C         50.29579        31.65752         0.50166
C         49.01744        30.86053         0.28287
C         50.25241        33.13223         0.26202
C         48.94094        33.81675         0.12698
C         50.26248        35.97260        -0.26227
C         49.00489        35.20204        -0.44443
C         50.25406        37.48520        -0.35353
C         49.00077        38.14644        -0.91300
C         50.17955        40.32669        -0.83178
C         49.00399        39.62890        -0.71611
C         50.16207        41.81313        -0.45920
C         48.84740        42.40888        -0.96484
C         49.99219        44.57919        -1.19101
C         48.71129        43.87015        -1.37042
C         51.35270        29.61765         1.37988
C         52.68775        31.82052         0.78503
C         51.49664        31.11623         1.40884
C         52.57239        33.01256         0.45320
C         51.43439        33.84452         0.14264
C         52.59511        36.13749        -0.18003
C         51.43815        35.27312        -0.06480
C         52.67760        37.28691        -0.63523
C         51.52239        38.12299        -1.00290
C         52.63938        40.49838        -1.07264
C         51.46600        39.60877        -1.17939
C         52.49000        41.74914        -1.11800
C         51.43481        42.63330        -0.92597
C         51.08154        43.92775        -1.28306
O         37.92033        27.64680        -0.99240
O         45.22515        27.25923        -0.46597
O         44.62887        43.15286         1.83302
O         32.46984        40.21663         1.54671
O         45.80002        31.31164         1.46054
O         37.63396        32.34797         1.75077
O         41.21803        41.75973         2.79495
O         48.78418        42.80483        -2.36558
O         33.03996        35.59546         0.90200
O         48.42545        37.79579        -2.19263
O         51.39980        38.68501        -2.30038
O         40.17463        36.92768        -1.38244
O         41.15002        44.37976         2.83268
O         48.59990        35.26493        -1.85316
O         31.89283        39.42900        -2.04815
O         31.11062        34.26607        -0.01940
O         43.87942        29.97756        -1.25567
O         48.08839        33.68897         1.31136
O         39.82204        31.18920         1.62863
O         50.08961        30.95230        -0.74741
O         39.50930        39.43513         2.35680
O         38.92036        42.96240         2.99832
O         43.79979        34.29807        -1.88410
O         45.89346        35.62790        -2.19395
O         42.77369        36.66667         1.46241
H         42.83651        37.37002         2.15213
O         41.87848        39.05122        -1.24937
H         41.70109        38.43526        -1.99508
O         42.67615        31.56375         1.77878
H         41.79146        31.85672         2.08795
O         50.28696        37.95109         1.03052
H         51.03239        37.50203         1.48534
O         34.34002        40.32290        -1.67128
H         33.57941        40.07626        -2.25251
O         41.93718        38.82776         2.40883
H         41.67055        39.49777         3.07824
O         35.06872        39.48046         1.80264
H         35.86558        39.59482         2.36358
O         41.39381        30.82451        -1.61268
H         42.20464        30.37214        -1.95281
O         36.41474        43.15083         3.14242
H         36.75445        43.80770         3.78407
O         36.76568        43.03651        -0.46881
H         36.64688        42.30097        -1.11869
O         35.23735        36.49051         1.57614
H         35.17050        35.64781         2.08465
O         42.65491        26.48772        -0.59013
H         42.67371        25.51825        -0.44696
O         35.45743        37.17567        -1.98296
H         35.53166        38.03071        -2.45897
O         46.88383        29.13085        -1.34458
H         46.62205        28.22207        -1.61548
O         36.06086        33.40212        -1.99326
H         35.46303        33.00825        -2.66376
O         34.05367        41.81090         2.91834
H         33.96242        40.82681         2.93466
O         45.71961        40.16351         1.86446
H         45.26816        40.91972         2.30010
O         43.40255        45.30244         2.40634
H         43.75327        44.57533         2.96752
O         50.10355        41.90442         0.97195
H         50.82484        41.36759         1.36117
O         36.80086        40.29032        -1.35362
H         37.56889        39.84504        -1.76928
O         35.69279        33.85813         1.59537
H         36.14683        33.19320         2.17260
O         41.82387        48.86516         1.54583
H         41.82155        49.83796         1.43986
O         51.31443        31.58071         2.71237
H         52.01916        31.22795         3.29267
O         32.75093        31.03313        -3.84790
H         32.14182        30.61194        -4.48856
