         410
 CSIRO Nanostructure Databank - Neutral Graphene Oxide Data Set
C         28.16596        27.86288         1.71520
C         27.96873        28.79583         0.67178
C         26.74444        29.54974         0.45590
C         27.83784        31.66321        -0.38040
C         26.69212        30.82781        -0.02763
C         27.85405        33.06389        -0.09800
C         26.82671        33.75475         0.58033
C         28.00422        35.91115         0.37973
C         26.86979        35.13178         0.74856
C         28.02297        37.35189         0.49919
C         26.85794        38.09039         0.82270
C         28.04122        40.21119         0.54580
C         26.86559        39.47024         0.83948
C         28.04837        41.67224         0.66831
C         26.85415        42.40686         0.93021
C         28.11507        44.47985         1.15773
C         26.88270        43.76878         1.12829
C         28.16332        45.87594         1.40647
C         30.55259        27.66563         1.14331
C         29.41065        27.26602         1.88806
C         30.40259        28.69335         0.18020
C         29.09238        29.05331        -0.13659
C         30.32365        31.61182        -0.82955
C         29.01112        31.06179        -0.88448
C         30.32300        33.08231        -0.89722
C         29.00934        33.84706        -0.54918
C         30.37953        35.93936        -0.31789
C         29.14231        35.25551        -0.15228
C         30.42695        37.34543        -0.10598
C         29.22111        38.06667         0.21276
C         30.46210        40.21236        -0.09577
C         29.21837        39.49254         0.24380
C         30.48513        41.72428         0.13599
C         29.26072        42.38151         0.61227
C         30.59061        44.44465         1.04093
C         29.32953        43.76915         0.92704
C         30.59939        45.81759         1.34809
C         29.37851        46.52457         1.49167
C         33.05539        24.84910         1.35140
C         31.92341        25.66140         1.70140
C         33.05274        27.51810         0.59761
C         31.79961        26.91999         1.17848
C         32.87136        28.80884        -0.13966
C         31.54109        29.30986        -0.62647
C         32.77692        31.54012        -0.81717
C         31.52554        30.85564        -0.72595
C         32.77655        33.00863        -1.04653
C         31.57568        33.81394        -0.77793
C         32.87386        35.89328        -0.50473
C         31.60252        35.19707        -0.59425
C         32.87780        37.29892        -0.26000
C         31.68529        38.03642        -0.15041
C         32.95605        40.17995        -0.09548
C         31.74524        39.47763        -0.07136
C         32.97788        41.66598        -0.08511
C         31.77153        42.39762         0.33309
C         33.11251        44.34126         1.02666
C         31.83452        43.70718         0.80788
C         33.16107        45.68071         1.63357
C         31.87452        46.48716         1.71122
C         33.22205        48.55602         1.78460
C         32.03723        47.95292         1.58572
C         35.58216        23.01820        -1.93649
C         35.49123        24.21056        -1.23304
C         33.91650        25.20594         0.34023
C         35.30050        27.27901        -0.42144
C         33.92470        26.57809        -0.30266
C         35.30604        28.70725        -0.35232
C         34.05038        29.45792        -0.42601
C         35.29079        31.57343        -0.71666
C         34.02997        30.87175        -0.73219
C         35.33181        32.98384        -0.82022
C         34.09886        33.75502        -1.03204
C         35.35541        35.82205        -0.59514
C         34.08989        35.17966        -0.66175
C         35.42722        37.23795        -0.19523
C         34.14748        38.00664        -0.02051
C         35.45400        40.12249         0.05150
C         34.20695        39.48174        -0.05990
C         35.54503        41.55648         0.21272
C         34.31620        42.36789         0.10024
C         35.58774        44.34257         0.94568
C         34.32500        43.71430         0.70804
C         35.62098        45.73464         1.35258
C         34.43733        46.40212         1.65914
C         35.74453        48.52780         2.03305
C         34.44247        47.78890         2.26554
C         35.80502        49.90933         2.23422
C         37.97845        23.25567        -2.27292
C         36.79485        22.57909        -2.51858
C         37.88917        24.64011        -1.78194
C         36.52194        25.24086        -1.32976
C         37.75401        27.30739        -0.62599
C         36.50507        26.59445        -0.68682
C         37.74730        28.69345        -0.35624
C         36.52846        29.42260        -0.36915
C         37.73894        31.59379        -0.42414
C         36.51976        30.87075        -0.47098
C         37.78074        32.98523        -0.65152
C         36.55328        33.69370        -0.79838
C         37.79110        35.87221        -1.19011
C         36.53958        35.12568        -0.83003
C         37.84871        37.29305        -0.68410
C         36.68208        37.98274        -0.37217
C         37.93913        40.03900        -0.00426
C         36.69965        39.37576        -0.06035
C         38.01504        41.39841         0.63945
C         36.74642        42.19834         0.46216
C         38.06435        44.23512         0.94022
C         36.80098        43.61396         0.74706
C         38.10325        45.61805         1.42558
C         36.88121        46.40953         1.49762
C         38.18083        48.54051         1.57461
C         36.94044        47.81319         1.73432
C         38.18245        49.96999         1.67078
C         36.98753        50.62165         2.03903
C         40.60120        21.00676        -3.72163
C         39.37718        21.54330        -3.41403
C         40.46910        23.26302        -2.06162
C         39.28737        22.68735        -2.57089
C         40.38354        24.45175        -1.19341
C         39.07476        25.20483        -1.08258
C         40.24716        27.27116        -0.41018
C         39.04159        26.63598        -0.71199
C         40.29693        28.67989        -0.13562
C         39.00295        29.38521        -0.01576
C         40.27727        31.64606        -0.07361
C         38.97760        30.90832         0.00311
C         40.27495        33.02506        -0.60603
C         39.04011        33.71334        -0.71079
C         40.27738        35.80234        -1.00038
C         39.05307        35.10744        -0.90656
C         40.30608        37.25326        -0.94092
C         39.09573        37.97252        -0.69171
C         40.37166        40.07591        -0.47222
C         39.13215        39.36056        -0.35524
C         40.39381        41.51231        -0.21191
C         39.25830        42.17674         0.28984
C         40.53262        44.28106         0.49992
C         39.29023        43.56156         0.60702
C         40.60124        45.70214         0.73050
C         39.44762        46.40120         1.30898
C         40.55506        48.58583         0.88492
C         39.38595        47.86600         1.23816
C         40.56357        50.01539         0.97284
C         39.39436        50.71000         1.38990
C         40.59009        52.82952         1.18319
C         39.44507        52.13021         1.48996
C         43.03255        20.93998        -3.49496
C         41.79611        21.55103        -3.17727
C         42.96579        23.22658        -1.71789
C         41.75504        22.69651        -2.31957
C         42.86337        24.50484        -0.97210
C         41.63563        25.14025        -0.84285
C         42.79410        27.24679         0.02525
C         41.49906        26.48013        -0.23412
C         42.77505        28.70850        -0.08537
C         41.51647        29.37818        -0.06179
C         42.80184        31.50260        -0.54120
C         41.56562        30.85936        -0.04361
C         42.72716        32.86845        -1.09020
C         41.48434        33.67327        -0.93207
C         42.70230        35.81508        -1.49827
C         41.48099        35.06977        -1.13551
C         42.76644        37.26746        -1.25420
C         41.53171        37.95499        -0.99203
C         42.75341        40.09687        -1.21927
C         41.52534        39.37742        -0.84813
C         42.77342        41.59440        -1.00060
C         41.59621        42.24764        -0.39272
C         42.97836        44.27811        -0.04638
C         41.67506        43.58922         0.01104
C         43.00263        45.77303         0.13569
C         41.73822        46.46116         0.42578
C         42.94322        48.61201         0.19300
C         41.75390        47.89145         0.50239
C         42.95062        50.04116         0.26352
C         41.76200        50.73265         0.66640
C         42.95371        52.86384         0.43831
C         41.76976        52.15257         0.76273
C         44.17974        21.41911        -2.91520
C         45.76306        23.22492        -0.31311
C         44.15755        22.51655        -2.01284
C         45.08279        24.31485         0.17583
C         44.03003        25.14606        -0.37325
C         45.27361        27.28580         0.22006
C         44.07224        26.51358        -0.05200
C         45.23222        28.68158        -0.03450
C         44.00287        29.39530        -0.20023
C         45.26609        31.54537        -0.66939
C         44.00666        30.82066        -0.51899
C         45.30260        32.92209        -1.04380
C         44.03002        33.56704        -1.44108
C         45.25242        35.80401        -1.45593
C         44.00110        35.05556        -1.62091
C         45.25381        37.22224        -1.49536
C         44.00010        37.94267        -1.35423
C         45.24068        40.08727        -1.40501
C         44.03479        39.37430        -1.30416
C         45.25475        41.52992        -1.30341
C         44.08842        42.24396        -0.95641
C         45.29961        44.35702        -0.98183
C         44.14039        43.62911        -0.70157
C         45.20519        45.84791        -1.17477
C         44.13477        46.54384        -0.38404
C         45.32533        48.67588        -0.62518
C         44.12823        47.92390        -0.27966
C         45.33098        50.08206        -0.49105
C         44.12551        50.77931        -0.06630
C         44.09070        52.19400         0.03043
C         47.77684        23.24459         1.18567
C         46.89147        22.61237         0.33128
C         47.77188        24.66368         1.40698
C         46.57036        25.36816         1.20405
C         47.71215        27.43754         0.85534
C         46.51467        26.70021         0.70912
C         47.79224        28.80493         0.33605
C         46.48901        29.44282        -0.14974
C         47.64934        31.66605        -0.07520
C         46.46460        30.90866        -0.29246
C         47.70795        33.04156        -0.53583
C         46.51632        33.64641        -1.10201
C         47.59512        35.81977        -1.84241
C         46.46059        35.07004        -1.46382
C         47.69797        37.21945        -1.77149
C         46.48832        37.94071        -1.57178
C         47.68869        40.10311        -1.71188
C         46.49431        39.38890        -1.55536
C         47.68763        41.53376        -1.69970
C         46.47809        42.24510        -1.44709
C         47.70159        44.40387        -1.57521
C         46.48894        43.67284        -1.36055
C         47.69629        45.84890        -1.43672
C         46.52681        46.55522        -1.13833
C         47.71223        48.70883        -1.29316
C         46.52178        47.98126        -1.01094
C         47.68489        50.11978        -1.15779
C         46.53886        50.78132        -0.76438
C         50.14813        24.90462         2.16919
C         48.94240        25.45964         1.67990
C         49.96889        27.71605         1.84754
C         48.86332        26.87224         1.47734
C         49.90084        29.13180         1.63431
C         48.84362        29.69534         0.85857
C         49.64633        31.98143         1.43800
C         48.75556        31.07467         0.61889
C         49.80667        33.35743         0.80879
C         48.92953        33.74060        -0.32788
C         50.22441        35.85936        -0.63540
C         49.32324        34.88748        -1.06939
C         50.30295        37.22352        -1.21080
C         49.02953        37.89811        -1.82522
C         50.16553        40.17179        -1.47031
C         48.99455        39.41441        -2.07494
C         50.14495        41.57783        -1.62645
C         48.90185        42.27219        -1.82386
C         50.16690        44.41468        -1.97953
C         48.91493        43.69839        -1.79320
C         50.04424        45.85737        -2.19153
C         48.89881        46.57403        -1.74078
C         50.00849        48.68427        -2.29169
C         48.89049        48.00086        -1.75602
C         51.18981        25.72196         2.56993
C         52.14140        27.99235         3.02891
C         51.11076        27.13340         2.46825
C         52.04938        29.38241         2.85968
C         50.96965        29.97334         2.12546
C         52.11687        32.17825         2.17831
C         50.95021        31.35993         1.88583
C         52.22049        33.47875         1.68447
C         51.07182        34.11828         1.00743
C         52.52682        36.17006         0.46064
C         51.34732        35.31207         0.15399
C         52.40444        37.61267         0.16562
C         51.35558        38.11845        -0.61981
C         52.18921        40.39634        -0.14036
C         51.24668        39.54160        -0.80647
C         52.16299        41.78864        -0.38403
C         51.28538        42.38227        -1.28915
C         52.74905        44.32617        -2.03478
C         51.39666        43.76957        -1.74320
C         52.93353        45.21389        -3.10249
C         51.02680        46.58130        -2.87281
C         51.04000        47.98289        -2.90668
C         54.22769        28.25495         4.31564
C         53.22895        27.44924         3.78887
C         54.19283        29.65511         4.17023
C         52.93712        30.30321         3.65702
C         54.27375        32.40058         3.40861
C         53.17665        31.63876         3.00240
C         54.52647        33.72510         2.78943
C         53.45803        34.25964         1.81861
C         54.46676        36.52863         1.97211
C         53.46753        35.70448         1.50350
C         54.54826        37.91261         1.48380
C         53.37348        38.46113         0.80373
C         55.17766        40.83322         0.70758
C         53.18501        39.83760         0.70372
C         55.25725        41.98179        -0.19474
C         54.15513        42.79430        -0.41227
C         55.37330        44.01424        -2.27030
C         54.04213        43.84172        -1.44652
C         55.27176        44.64921        -3.57619
C         54.13834        45.33567        -3.87849
C         55.24445        30.48976         4.60438
C         55.25319        31.84001         4.29080
C         55.36743        34.75140         3.42681
C         55.37399        36.03928         2.99487
C         55.77332        38.56104         1.48651
C         56.08520        39.81165         0.85081
C         56.42560        42.14303        -1.04055
C         56.47254        43.06820        -2.02795
O         45.38753        24.68372         1.50913
O         37.09773        25.46501        -2.67060
O         28.89000        29.74153        -1.34966
O         53.00821        42.62608         0.36571
O         41.05341        31.53169         1.17044
O         43.26847        32.87718        -2.47184
O         34.59714        24.15313        -0.18944
O         43.26351        35.45597        -2.81911
O         51.89042        45.87825        -3.73136
O         47.47953        28.87244        -1.09028
O         33.42774        33.42744        -2.30081
O         38.99670        45.83465         2.57064
O         34.86508        37.44824         1.15617
O         50.06658        37.30206        -2.65948
O         41.99816        26.66552         1.12847
O         53.98683        40.70184         1.46799
O         32.41925        45.85962         2.93194
O         45.46207        22.74167        -1.58349
O         29.42365        33.59845        -1.93037
O         54.68128        33.59456         1.34242
O         52.54673        35.23859        -0.69719
O         39.49448        24.29331        -0.00560
O         48.68812        35.08940        -2.30165
O         43.38915        44.84940         1.24851
O         42.50955        41.03256        -2.33816
O         49.88964        34.39645         1.87454
O         38.83963        30.15661         1.23681
O         55.01237        44.90689        -1.17156
O         30.33605        41.14483        -1.21771
O         33.68038        42.28601        -1.22132
O         37.72970        35.99016        -2.66226
H         38.57306        36.39182        -2.96319
O         34.31548        47.63912         3.71509
H         33.56568        47.00861         3.85893
O         33.34963        26.41897        -1.61054
H         32.94887        27.27563        -1.89115
O         33.89284        27.82826         1.75694
H         33.83364        27.07540         2.38274
O         38.12626        41.13179         2.08705
H         37.35036        40.59120         2.34826
O         49.10341        39.57650        -3.52217
H         49.72657        38.87959        -3.83170
O         48.87700        32.17310         2.67479
H         49.16335        33.04440         3.03923
O         31.42804        28.80268        -2.00105
H         30.52755        29.05707        -2.31564
O         52.14320        30.61499         4.88446
H         51.96361        29.75920         5.33028
O         44.74198        45.98549        -2.58697
H         45.43450        45.58794        -3.15820
H         27.33023        27.59397         2.37667
H         25.80760        29.10176         0.82368
H         25.70824        31.32322        -0.02309
H         25.94471        33.20195         0.93261
H         26.00944        35.62341         1.22175
H         25.91896        37.56584         1.04382
H         25.93430        39.99380         1.09106
H         25.88379        41.89347         0.94120
H         25.94616        44.32092         1.29239
H         27.22673        46.42919         1.56434
H         29.52388        26.49226         2.65994
H         29.40214        47.59749         1.72761
H         33.07908        23.80858         1.70218
H         31.10348        25.18581         2.25727
H         33.29403        49.64446         1.64171
H         31.17623        48.54291         1.23654
H         34.75161        22.30482        -1.85154
H         34.90589        50.45934         2.54366
H         36.80423        21.57969        -2.97283
H         36.96734        51.71080         2.17438
H         40.67551        20.13357        -4.38543
H         38.46987        21.10259        -3.84581
H         40.60483        53.92608         1.26261
H         38.55813        52.68977         1.81496
H         43.05871        20.08099        -4.17936
H         42.95651        53.96099         0.50950
H         45.15169        20.95277        -3.12307
H         44.98158        52.78383        -0.22171
H         48.65740        22.67000         1.51075
H         47.14125        21.59202         0.00330
H         48.59157        50.70823        -1.35279
H         46.57961        51.87322        -0.65884
H         50.23836        23.81614         2.28739
H         50.02348        49.78167        -2.32096
H         52.08898        25.25140         2.98862
H         51.83858        48.51244        -3.44178
H         55.08612        27.79125         4.82448
H         53.30570        26.36392         3.93210
H         56.10832        44.57669        -4.28525
H         54.05449        45.88874        -4.82405
H         56.09808        30.04753         5.13948
H         56.10167        32.45895         4.61291
H         55.98030        34.47126         4.29595
H         56.03201        36.76542         3.49388
H         56.63984        37.98215         1.84388
H         57.10544        39.92463         0.45556
H         57.27143        41.45565        -0.90278
H         57.32855        43.09624        -2.71774
