         344
 CSIRO Nanostructure Databank - Neutral Graphene Oxide Data Set
C          1.58026         2.38579        -2.12144
C          1.55612         3.69048        -1.82743
C          2.39473         1.44751        -1.27206
C          2.28283         4.20594        -0.59251
C          1.23575         6.47473        -0.82720
C          1.21119         7.84655        -0.57962
C          2.38692         5.71549        -0.56631
C          2.35730         8.49214        -0.09834
C          1.09953        10.68887         0.26479
C          1.11805        12.04168         0.07757
C          2.33124         9.87859         0.53301
C          2.32294        12.79669        -0.03617
C          1.14280        15.00683         0.02411
C          1.17697        16.38020         0.00170
C          2.34203        14.21823        -0.03064
C          2.41448        17.09199        -0.04162
C          2.47231        18.51216        -0.06815
C          3.66922         2.13627        -0.84020
C          3.63097         3.50660        -0.50377
C          4.87533         1.43050        -0.78082
C          4.81051         4.17231        -0.14150
C          3.56173         6.36860        -0.15270
C          3.55340         7.76327         0.04083
C          4.76014         5.59634         0.36580
C          4.75056         8.43710         0.69303
C          3.61504        10.60922         0.21971
C          3.59626        12.02897        -0.29819
C          4.79247         9.92483         0.34363
C          4.85066        12.77869         0.05110
C          3.59324        14.91890        -0.05855
C          3.62877        16.34478        -0.04789
C          4.83009        14.18660         0.01709
C          4.87398        17.05181        -0.06976
C          3.68087        19.18239        -0.11555
C          4.91336        18.46931        -0.12583
C          6.07100         2.08961        -0.48176
C          6.05146         3.47881        -0.20070
C          7.34371         1.27848        -0.49563
C          7.29964         4.19951        -0.06536
C          6.06138         6.34796         0.18569
C          6.06071         7.74226         0.35596
C          7.29016         5.62625         0.04552
C          7.27417         8.46934         0.36845
C          6.06363        10.62221         0.28360
C          6.07132        12.05139         0.22829
C          7.28834         9.91982         0.40992
C          7.29883        12.73751         0.44167
C          6.05138        14.91359         0.11115
C          6.09788        16.31711        -0.02017
C          7.27148        14.20144         0.45256
C          7.33586        17.00779        -0.27141
C          6.18244        19.14141        -0.17257
C          7.36871        18.44130        -0.28513
C          8.59258         2.07122        -0.21407
C          8.53969         3.48918        -0.08775
C          9.81849         1.40056        -0.14999
C          9.77158         4.20684         0.02054
C          8.51942         6.33984         0.05824
C          8.52081         7.76740         0.22618
C          9.76327         5.62851         0.03158
C          9.72662         8.47852         0.19998
C          8.51795        10.63686         0.53545
C          8.52036        12.03780         0.58739
C          9.79664         9.86651         0.78285
C          9.79378        12.81368         0.90102
C          8.60705        14.94589         0.18524
C          8.49475        16.21993        -0.48855
C          9.88776        14.15588         0.12580
C          9.91480        17.27123         1.10174
C          8.69832        19.16649        -0.39780
C          9.91778        18.56215         0.31082
C         11.03322         2.08808         0.03268
C         11.01588         3.51784         0.10651
C         12.30402         1.39940         0.09096
C         12.23192         4.24349         0.22872
C         10.99455         6.32242        -0.03018
C         10.95058         7.77920        -0.18391
C         12.23397         5.64400         0.07941
C         12.24161         8.53340        -0.24898
C         11.06181        10.62691         0.42393
C         11.06822        12.05571         0.59144
C         12.21670         9.97993         0.05408
C         12.25608        12.78099         0.55953
C         11.08280        14.95532         0.66426
C         11.11379        16.38446         0.84540
C         12.25369        14.21858         0.75992
C         12.33635        17.07304         0.89673
C         11.13270        19.16193         0.20280
C         12.36197        18.52212         0.68225
C         13.47230         2.05116         0.34837
C         13.47741         3.52450         0.68816
C         14.75074         1.28126         0.58414
C         14.75346         4.22503         0.27605
C         13.50021         6.38157         0.04383
C         13.50693         7.79041        -0.10693
C         14.72580         5.66754         0.11989
C         14.72639         8.51941        -0.20972
C         13.43100        10.75637        -0.39350
C         13.51167        12.11503         0.26166
C         14.73397         9.97354        -0.31356
C         14.71437        12.75366         0.38667
C         13.51543        14.89587         1.09646
C         13.58517        16.37114         1.01727
C         14.79645        14.11352         0.96084
C         14.80866        17.04522         1.03972
C         13.54762        19.19776         0.74686
C         14.80070        18.54074         1.27738
C         16.01860         2.06561         0.28880
C         15.92999         3.51812         0.16296
C         17.20662         1.39335         0.23791
C         17.22290         4.23430        -0.15800
C         15.95930         6.39340         0.01836
C         15.93964         7.80607        -0.17473
C         17.20146         5.71471         0.07636
C         17.20226         8.47561        -0.50508
C         15.90906        10.67641        -0.42527
C         15.90796        12.14962        -0.25973
C         17.20073         9.99744        -0.65410
C         17.20336        12.89054        -0.32139
C         16.09209        14.87400         0.92466
C         16.06818        16.35971         0.93890
C         17.32224        14.19169         0.41330
C         17.25627        17.06943         0.71312
C         16.07161        19.22286         0.86072
C         17.25845        18.53061         0.69010
C         18.54544         2.08592         0.05686
C         18.35061         3.52636         0.61275
C         19.74678         1.41213         0.70188
C         19.64376         4.32571         0.70288
C         18.44611         6.41053         0.05810
C         18.47235         7.81713        -0.19188
C         19.67610         5.72705         0.24653
C         19.67944         8.53219        -0.20904
C         18.48032        10.69204        -0.45460
C         18.50086        12.17862        -0.74356
C         19.67043         9.98347        -0.33924
C         19.74382        12.86534        -0.25018
C         18.53810        14.98876         0.19920
C         18.51030        16.38697         0.45048
C         19.75054        14.26601        -0.01654
C         19.71326        17.12241         0.37207
C         18.50056        19.22622         0.49825
C         19.72619        18.54964         0.40294
C         20.89217         2.09263         0.91804
C         20.92853         3.58403         0.86981
C         22.17419         1.41783         1.35731
C         22.19192         4.27859         0.53178
C         20.91677         6.40537         0.14940
C         20.91982         7.82868        -0.06098
C         22.15970         5.69188         0.25681
C         22.14894         8.54144        -0.10582
C         20.93331        10.69270        -0.27149
C         20.94596        12.13132        -0.22343
C         22.14606         9.97965        -0.19217
C         22.19051        12.82748        -0.10212
C         20.99291        14.94596         0.10907
C         21.02563        16.40055         0.50489
C         22.19589        14.25181         0.00832
C         22.16727        17.11679        -0.20312
C         20.99750        19.24364         0.34903
C         22.20908        18.58836         0.16236
C         23.42829         2.16324         0.92735
C         23.38232         3.56194         0.58446
C         24.63778         1.49887         0.98333
C         24.67828         4.21389         0.16534
C         23.39242         6.40770         0.10409
C         23.38446         7.83507        -0.04355
C         24.63244         5.72301         0.14519
C         24.61929         8.54374        -0.15329
C         23.39629        10.68763        -0.17352
C         23.41158        12.10877        -0.12328
C         24.62343         9.96906        -0.20456
C         24.66250        12.81913        -0.09342
C         23.45691        14.98105         0.09742
C         23.45410        16.36153         0.05902
C         24.69602        14.22718         0.06858
C         24.68437        17.10509         0.33587
C         23.46545        19.26072         0.14791
C         24.69537        18.57925         0.15698
C         25.90829         2.18890         0.95363
C         25.85518         3.70339         0.99867
C         27.10168         1.55125         1.08763
C         27.13964         4.36064         0.54291
C         25.85246         6.41978         0.02139
C         25.85894         7.83919        -0.16923
C         27.10924         5.72126         0.11770
C         27.08315         8.53533        -0.38325
C         25.86411        10.67416        -0.30372
C         25.87912        12.09978        -0.25453
C         27.08223         9.96564        -0.48380
C         27.10337        12.80714        -0.43982
C         25.94298        14.90537         0.01112
C         25.98808        16.33693         0.36803
C         27.10830        14.21928        -0.36705
C         27.31618        17.08244         0.37338
C         25.94167        19.22690         0.02648
C         27.18533        18.55094        -0.00407
C         28.35505         2.34192         1.36698
C         28.34368         3.69200         0.68666
C         29.63108         1.58107         1.12382
C         29.57142         4.33523         0.33489
C         28.32721         6.41368        -0.11704
C         28.32183         7.81572        -0.41439
C         29.56737         5.70968        -0.04531
C         29.54663         8.48617        -0.67631
C         28.29319        10.68554        -0.73126
C         28.31349        12.07926        -0.71283
C         29.50449         9.91321        -1.18833
C         29.55284        12.82446        -0.95590
C         28.26916        14.99173        -0.93484
C         28.44345        16.38333        -0.35857
C         29.55034        14.19866        -1.02815
C         29.60880        17.06822        -0.52687
C         28.38048        19.22639        -0.24569
C         29.61915        18.53013        -0.41434
C         30.76268         2.19540         0.71479
C         30.79408         3.60958         0.37854
C         31.99076         4.27445         0.06246
C         30.79917         6.38021        -0.31999
C         30.77053         7.79312        -0.64439
C         31.99594         5.62969        -0.26203
C         31.98627         8.53006        -0.87700
C         30.80052        10.67607        -1.02115
C         30.80040        12.06783        -1.05574
C         32.00250         9.89398        -1.02126
C         32.02751        12.83519        -1.16817
C         30.77162        14.98406        -1.46721
C         30.92099        16.32358        -0.70259
C         32.03042        14.16945        -1.36674
C         32.01720        17.19580        -1.25712
C         30.78459        19.22877        -0.71195
C         31.95966        18.55102        -1.16439
O         17.18435         9.11751        -1.83275
O         25.27141        16.63358         1.61739
O         11.52203         8.23997        -1.52284
O         14.16680        14.28186         2.27125
O         16.27543        12.96393        -1.45742
O         20.26225         4.19213         2.04906
O         17.02045        14.19475         1.86034
O          8.01754        14.90089         1.51590
O          9.16801        17.09141         2.05289
O          4.56205         8.25628         2.10559
O          9.88777         9.65299         2.23648
H          8.98896         9.44613         2.57119
O          7.22949         0.17570         0.42437
H          7.11321         0.54387         1.32440
O         17.84533         3.38361         1.95681
H         18.61760         3.47508         2.56456
O         17.43044         4.12521        -1.61180
H         16.76707         4.70262        -2.04647
O         21.33711        16.43679         1.93247
H         20.60709        15.99403         2.41429
O         22.18574         1.33321         2.79705
H         22.12441         2.24486         3.15169
O         14.72927        18.71127         2.74833
H         14.04548        18.09070         3.08162
O         13.20641        10.99768        -1.82188
H         12.89277        10.15556        -2.21885
O          1.62322         1.08957        -0.10203
H          2.20768         0.58847         0.50358
O         28.30408         2.63811         2.82069
H         29.14338         3.09158         3.05102
O         27.77549        17.09460         1.76333
H         26.96259        17.17273         2.31719
O         18.91092         2.05438        -1.34426
H         18.24083         2.57156        -1.85050
O         30.56889        15.34592        -2.87546
H         30.63745        14.52251        -3.40425
O         25.64818         4.08059         2.38109
H         26.38657         3.67834         2.89501
O         13.45267         3.59451         2.15990
H         12.59428         3.22518         2.45765
O         29.33655         9.77637        -2.65290
H         30.08914         9.23712        -2.97753
O         24.95423         3.78285        -1.20457
H         24.22138         4.09773        -1.77394
O          4.60081         5.53519         1.81890
H          4.52518         6.49314         2.12848
O         10.16139        13.82771        -1.25299
H         10.27258        14.66775        -1.74990
O         31.32861        15.93888         0.64598
H         31.24512        16.72863         1.22095
O          9.42443        16.53181        -1.43262
H          9.22602        17.42728        -1.82725
O          2.30251         9.66073         1.97129
H          3.11356         9.09721         2.20976
O          1.48668         3.83068         0.56036
H          1.35202         2.85194         0.51579
O          9.01930        19.17812        -1.81786
H          9.82913        19.71558        -1.94690
O         21.89691        17.04995        -1.63093
H         22.58809        17.56370        -2.09788
O         14.74263         0.03324        -0.11279
H         14.80527         0.21376        -1.07265
O          3.62592        11.87842        -1.78199
H          4.44704        11.38762        -2.00205
O         27.85869        15.26412        -2.33177
H         28.68104        15.54633        -2.80662
O         18.59058        12.26774        -2.19592
H         17.66486        12.24347        -2.53795
O          9.80869        13.08466         2.31653
H          9.09610        13.74532         2.49897
H          1.02332         1.98137        -2.97996
H          0.96415         4.38782        -2.43968
H          2.64213         0.50908        -1.84342
H          0.31072         5.97075        -1.14062
H          0.27128         8.40118        -0.71026
H          0.12840        10.19465         0.41647
H          0.15467        12.57290         0.04853
H          0.16651        14.50501         0.06096
H          0.23717        16.95122         0.02075
H          1.53122        19.08124        -0.05706
H          4.89556         0.35490        -1.01223
H          3.69847        20.28158        -0.14557
H          7.45151         0.81151        -1.51510
H          6.19793        20.24128        -0.13431
H          9.82887         0.30487        -0.24614
H          8.56556        20.23236        -0.06272
H         12.31902         0.30872        -0.06155
H         11.23095        20.15110        -0.27861
H         14.77250         1.02828         1.68223
H         13.57253        20.27797         0.53217
H         17.18931         0.29504         0.33095
H         16.08148        20.32365         0.85469
H         19.74588         0.31233         0.77737
H         18.48606        20.32655         0.49402
H         22.20543         0.36628         0.97537
H         20.99511        20.33398         0.50523
H         24.64409         0.41773         1.19434
H         23.47436        20.36233         0.16752
H         27.15042         0.45154         1.12382
H         25.94620        20.31836        -0.12507
H         29.64457         0.50951         1.37475
H         28.36960        20.31798        -0.39264
H         31.69778         1.62317         0.61323
H         32.93924         3.71833         0.08507
H         32.95935         6.10860        -0.48266
H         32.94612         7.99659        -0.86932
H         32.97777        10.39514        -1.09334
H         32.99082        12.30781        -1.12497
H         32.99175        14.69094        -1.48283
H         32.92936        16.71800        -1.64246
H         30.77713        20.32801        -0.69208
H         32.81556        19.15824        -1.49497
