         467
 CSIRO Nanostructure Databank - Neutral Graphene Oxide Data Set
C         37.99415        49.75083         2.48939
C         37.22176        50.18591         3.51827
C         38.47991        52.27215         3.69279
C         37.44014        51.46549         4.11880
C         40.34877        48.46422         1.32644
C         40.34774        49.85339         1.52443
C         39.07224        50.60283         1.88253
C         40.50844        52.61678         2.29043
C         39.36406        51.85722         2.67240
C         40.64793        54.00179         2.67704
C         42.65953        48.50142         0.53950
C         41.47855        47.79692         0.87033
C         42.68151        49.91969         0.71794
C         41.52019        50.60201         1.24278
C         42.71364        52.81852         1.14844
C         41.54196        52.00914         1.53241
C         42.88281        54.19495         1.69086
C         41.74833        54.75238         2.37382
C         45.03223        45.73691        -0.39366
C         43.87981        46.39962        -0.06953
C         44.94379        48.58645        -0.40913
C         43.82562        47.83536         0.01375
C         44.99638        49.98794        -0.15953
C         43.87144        50.62566         0.40629
C         45.24445        52.72612         0.71004
C         43.90151        52.09075         0.57862
C         45.29842        54.16959         1.08281
C         44.05973        54.90231         1.46563
C         45.32294        57.01824         1.46532
C         44.20225        56.31125         1.75825
C         47.63484        44.39295        -0.60527
C         47.43606        45.78364        -1.01530
C         46.21095        46.43082        -0.82230
C         47.30527        48.69400        -1.49865
C         46.06654        47.88015        -1.07430
C         47.25915        50.16800        -1.20787
C         46.20001        50.76036        -0.48361
C         47.56304        52.82536        -0.22966
C         46.36035        52.10619        -0.04545
C         47.81101        54.13591         0.50594
C         46.49991        54.93038         0.60396
C         47.79053        57.14742         0.77214
C         46.48550        56.41132         0.78092
C         47.78733        58.57902         0.52424
C         49.85306        44.39959        -1.66633
C         48.79874        43.73935        -0.80289
C         49.90613        45.85992        -1.24905
C         48.62160        46.56340        -1.29268
C         49.83183        48.66955        -1.07050
C         48.58924        47.95025        -1.44572
C         50.15484        49.99707        -1.60532
C         48.29959        51.01794        -1.62070
C         49.85239        52.99876        -1.29833
C         48.56916        52.28227        -1.05186
C         49.97817        54.39239        -0.80459
C         48.95908        54.95854        -0.06875
C         50.17932        57.16889        -0.18714
C         49.07127        56.36596         0.34669
C         50.17699        58.56631        -0.01927
C         48.95312        59.24784         0.28104
C         52.14966        41.52751        -0.85857
C         51.18593        42.21835        -1.47512
C         52.33780        44.36731        -0.87010
C         51.25597        43.70643        -1.69724
C         52.33276        45.78021        -0.73955
C         51.05676        46.48195        -0.83607
C         52.28908        48.67417        -0.26514
C         51.00969        47.92044        -0.50779
C         52.32477        50.16565        -0.47066
C         51.18807        50.78074        -1.19364
C         52.47724        52.95436        -1.29485
C         51.19726        52.23322        -1.45961
C         52.45309        54.40671        -1.39161
C         51.21542        55.11575        -1.08524
C         52.39602        57.30222        -1.32796
C         51.25232        56.50209        -0.85467
C         52.46007        58.72272        -0.94831
C         51.38003        59.33293        -0.31662
C         52.58061        61.46980        -0.17163
C         51.45022        60.72366         0.04275
C         54.70824        40.08934        -0.71691
C         54.66692        41.43745        -0.42147
C         53.35117        42.16170        -0.20539
C         54.70251        44.30351        -0.24375
C         53.47370        43.63908        -0.49521
C         54.73879        45.71994        -0.31448
C         53.53630        46.45057        -0.44902
C         54.84294        48.64054        -0.52470
C         53.57644        47.92188        -0.24477
C         54.90267        50.03239        -0.72519
C         53.66791        50.85138        -0.64484
C         54.94399        52.88925        -1.30349
C         53.67393        52.24979        -1.15657
C         54.97893        54.35380        -1.69786
C         53.66571        55.08440        -1.49482
C         55.06747        57.23329        -1.74124
C         53.69682        56.53858        -1.66395
C         55.03008        58.73407        -1.44310
C         53.67589        59.49644        -1.20960
C         54.98047        61.55323        -0.82202
C         53.74753        60.87923        -0.72897
C         55.05939        63.00728        -0.84511
C         57.10995        39.94915        -0.35047
C         55.93738        39.36947        -0.75851
C         57.10257        41.35233         0.09755
C         55.88192        42.14745        -0.11448
C         57.18460        44.26747         0.09086
C         55.92872        43.55225        -0.03270
C         57.21487        45.69611        -0.07954
C         55.99547        46.42889        -0.29524
C         57.26892        48.47385        -0.83602
C         56.00543        47.81368        -0.55891
C         57.31043        49.92094        -1.05525
C         56.15361        50.70924        -1.05010
C         57.37236        52.96109        -1.26095
C         56.14200        52.16971        -1.26767
C         57.34426        54.33208        -0.86462
C         56.14217        55.09692        -1.05696
C         57.32787        57.20710        -0.55556
C         56.17066        56.48920        -1.01974
C         57.38344        58.62501        -0.51837
C         56.22046        59.40813        -0.91760
C         57.38758        61.59289        -0.32471
C         56.19122        60.79966        -0.79238
C         57.53381        62.90430        -1.14394
C         56.22311        63.65585        -1.05432
C         59.68278        37.14150        -0.23055
C         58.48379        37.78519        -0.25353
C         59.71332        40.00079        -0.35640
C         58.40318        39.22819        -0.48728
C         59.70090        41.42451         0.01260
C         58.43142        42.11406         0.27929
C         59.67052        44.27797         0.27375
C         58.41901        43.58448         0.21582
C         59.67812        45.71258         0.23661
C         58.45502        46.37831         0.00522
C         59.71658        48.64121         0.02956
C         58.54978        47.77723        -0.44257
C         59.80732        49.87851        -0.82624
C         58.65366        50.33125        -1.42022
C         59.86017        52.96876        -1.09684
C         58.64546        52.44030        -1.56476
C         59.79129        54.29015        -0.57278
C         58.56066        54.98138        -0.53587
C         59.83581        57.16564         0.04592
C         58.50009        56.40949        -0.15169
C         59.81830        58.62897        -0.02241
C         58.59845        59.32215        -0.18169
C         59.81669        61.45158         0.03062
C         58.65399        60.78037        -0.22137
C         59.89852        62.93168        -0.06611
C         58.74684        63.70845        -0.61876
C         59.65943        65.76142         0.40777
C         58.63601        65.12408        -0.18914
C         62.25370        35.70781        -0.49346
C         62.20106        37.09898        -0.28263
C         60.94778        37.83762        -0.26605
C         62.17710        39.97498        -0.01354
C         60.95900        39.23581        -0.18247
C         62.14452        41.37995         0.08283
C         60.90439        42.11350         0.14620
C         62.13716        44.25521         0.51232
C         60.90837        43.55391         0.31736
C         62.12909        45.72340         0.67986
C         60.91627        46.47185         0.29855
C         62.26077        48.57254         0.03185
C         61.00190        47.84694         0.08586
C         62.30417        49.94855        -0.37563
C         61.10139        50.57884        -0.97468
C         62.37645        52.83234        -0.73979
C         61.12220        52.16902        -1.16035
C         62.33878        54.31647        -0.81824
C         61.05331        55.05993        -0.60177
C         62.30282        57.19705        -0.25830
C         61.09967        56.47895        -0.22046
C         62.28188        58.62665        -0.02143
C         61.06555        59.30588         0.09361
C         62.30436        61.51269         0.38890
C         61.02396        60.72984         0.57773
C         62.28758        62.91299         0.52716
C         60.95045        63.57981         0.82680
C         62.25102        65.86986         0.58249
C         60.94937        65.10987         0.74001
C         62.27498        67.26983         0.14285
C         64.69766        35.69031        -0.39347
C         63.46601        35.02582        -0.55182
C         64.67720        37.09662        -0.15655
C         63.43093        37.80314        -0.11652
C         64.63109        39.88477         0.29589
C         63.41650        39.22420         0.05511
C         64.66131        41.36027         0.33075
C         63.39186        42.14686         0.18999
C         64.60594        44.28588         0.73771
C         63.36201        43.57973         0.57963
C         64.69182        45.66535         0.62465
C         63.46287        46.47376         0.68893
C         64.71807        48.60094         0.27408
C         63.48473        47.90842         0.31764
C         64.74222        49.98564         0.01033
C         63.52069        50.67728        -0.28204
C         64.77083        52.85768         0.06411
C         63.52238        52.13081        -0.42555
C         64.86349        54.30625        -0.40230
C         63.61164        55.08057        -0.68326
C         64.77821        57.21121        -0.18944
C         63.56707        56.52419        -0.40655
C         64.74527        58.63517        -0.03399
C         63.52889        59.36037         0.02528
C         64.74074        61.56762         0.04728
C         63.50097        60.78953         0.16461
C         64.73999        63.01110         0.33801
C         63.50179        63.69406         0.44348
C         64.72638        65.83100         0.23269
C         63.51168        65.11589         0.44373
C         64.72269        67.25132        -0.00854
C         63.45767        67.90775        -0.11513
C         67.24642        32.93903        -0.83199
C         66.03421        33.60265        -0.71382
C         67.20196        35.70529        -0.34987
C         65.97504        34.99208        -0.48010
C         67.18783        37.12205        -0.10143
C         65.91003        37.80346         0.02077
C         67.10274        39.95608         0.43240
C         65.85544        39.17763         0.31000
C         67.04218        41.23634         1.19693
C         65.77752        42.01837         1.06248
C         67.12762        44.15908         1.24706
C         65.80801        43.51469         1.14441
C         67.31136        45.59668         0.79160
C         65.99828        46.33592         0.45366
C         67.18989        48.56219         0.91204
C         66.00810        47.85400         0.42134
C         67.29165        49.97163         0.51954
C         66.06639        50.66828        -0.07158
C         67.27309        52.92482         0.33866
C         66.09802        52.17931        -0.31960
C         67.25407        54.31486         0.31440
C         66.06625        55.07181        -0.02912
C         67.31078        57.19829        -0.05803
C         66.02648        56.46091        -0.07117
C         67.31313        58.64774         0.24174
C         66.00364        59.35991         0.23257
C         67.27044        61.52599         0.49562
C         66.03865        60.82926         0.00830
C         67.22393        62.99747         0.67214
C         65.95811        63.72758         0.40180
C         67.26448        65.80008        -0.05624
C         65.95942        65.12201         0.27502
C         67.21373        67.30025        -0.08037
C         65.97332        67.96951        -0.16922
C         67.18952        70.04296        -0.66154
C         66.00066        69.37486        -0.40950
C         69.79818        31.53191        -1.11861
C         69.74637        32.92259        -0.86265
C         68.47625        33.62059        -0.72313
C         69.69028        35.74649        -0.33643
C         68.45379        35.02367        -0.47045
C         69.66750        37.14895        -0.06298
C         68.40400        37.81356         0.02565
C         69.65622        39.91375         0.72471
C         68.41560        39.26830         0.25108
C         69.60600        41.22754         1.38491
C         68.30050        41.95709         1.55037
C         69.53433        44.16347         1.69476
C         68.27726        43.44266         1.47068
C         69.43650        45.52705         2.08596
C         68.18841        46.37822         1.82649
C         69.38358        48.76134         2.10430
C         68.48014        47.83167         1.27190
C         69.49390        50.13754         1.69230
C         68.44300        50.78856         0.96589
C         69.61278        52.92632         1.21738
C         68.43882        52.20590         0.83478
C         69.66142        54.39178         1.22792
C         68.42292        55.10295         0.77098
C         69.80932        57.25776         0.67765
C         68.59600        56.49334         0.27848
C         69.85128        58.65732         0.49440
C         68.61791        59.37969         0.09953
C         69.82817        61.60420         0.61132
C         68.59182        60.86877         0.26060
C         69.80432        63.01774         0.72769
C         68.51056        63.75063         0.83855
C         69.73875        66.00836         0.58801
C         68.45936        65.24040         0.70909
C         69.69227        67.36826         0.03998
C         68.45762        68.00228        -0.22535
C         69.68053        70.06389        -0.95886
C         68.43573        69.38775        -0.61286
C         69.66874        71.32883        -1.59064
C         72.21267        31.58101        -1.14545
C         71.00896        30.86956        -1.25772
C         72.18873        32.94507        -0.89422
C         70.96729        33.64309        -0.74722
C         72.12330        35.82571        -0.34919
C         70.93879        35.07374        -0.47792
C         72.09855        37.18849        -0.07009
C         70.88800        37.88392         0.08595
C         72.08064        40.09694         0.55337
C         70.87184        39.29406         0.49174
C         72.07792        41.41086         0.91255
C         70.88821        42.01714         1.52388
C         71.86380        44.11314         2.43760
C         70.77090        43.47907         1.82557
C         71.68905        45.34757         3.06037
C         70.46256        46.00503         2.90371
C         71.35969        49.12977         3.55624
C         70.29135        48.34002         3.07886
C         71.58649        50.36577         2.99392
C         70.64397        50.89346         2.08445
C         72.00196        52.97487         1.76436
C         70.77490        52.26314         1.66238
C         72.09529        54.33787         1.48328
C         70.95027        55.10779         1.24013
C         72.15487        57.30639         1.30412
C         70.97398        56.54814         1.08467
C         72.18503        58.67947         1.12756
C         71.03384        59.40377         0.73186
C         72.24397        61.61673         0.69628
C         71.04353        60.87432         0.65771
C         72.22886        63.00531         0.62544
C         71.02234        63.73300         0.64904
C         72.14616        65.90136        -0.18012
C         71.04958        65.22566         0.55770
C         72.11220        67.21708        -0.45498
C         71.00028        68.12844         0.04543
C         72.11324        70.13470        -0.99459
C         70.93000        69.44979        -0.69038
C         72.08243        71.38713        -1.60967
C         70.85362        71.97836        -1.91872
O         61.57746        65.68650         1.92962
O         65.49831        61.27371        -1.24964
O         46.32451        48.25969        -2.47513
O         50.00407        48.46396         0.39882
O         58.16685        47.83116        -1.84675
O         61.31117        51.23547        -2.24864
O         67.08220        62.06396         1.82871
O         65.41214        42.66802         2.30605
O         64.49955        54.62186        -1.77309
O         54.32465        59.39210        -2.52674
O         50.44553        52.74392        -2.59756
O         52.79135        57.01573        -2.71193
O         62.71093        46.21080         1.93521
O         42.98780        52.79670        -0.32142
O         64.33040        41.95954        -0.96192
O         48.74763        56.66411         1.74762
O         45.61467        53.11822         2.08886
O         66.64137        58.95243         1.50760
O         70.18301        47.10802         3.72546
O         46.18375        55.78435        -0.53208
O         52.92598        50.85439         0.64805
O         67.02084        50.04036        -0.98104
O         68.69692        60.24523        -1.07315
O         57.70663        41.54136         1.43348
O         52.89691        48.30221         1.01096
O         59.09981        39.72090        -1.68620
O         58.71569        51.32539        -2.39936
O         70.36954        41.22057         2.64615
O         49.22628        50.48993        -2.53735
O         68.31009        64.65058         2.00952
O         59.95057        63.45329        -1.44400
O         59.04206        56.65028         1.18438
O         67.80546        40.07822        -0.85581
O         67.50871        41.25101         2.57485
O         68.67966        54.99306         2.20139
O         68.22108        56.75017        -1.11259
O         61.61868        54.84306        -1.97827
O         70.61239        65.89874         1.78046
O         66.15828        47.01265        -0.84114
O         71.30979        68.47126         1.43331
H         71.21648        67.63392         1.95376
O         51.76821        43.86207        -3.06855
H         52.18868        44.74500        -3.14124
O         49.31541        44.35200        -3.01145
H         50.06440        44.10925        -3.60891
O         57.76750        62.59066        -2.52359
H         58.73856        62.66982        -2.67853
O         55.23158        54.36761        -3.13639
H         55.32671        55.31822        -3.40832
O         53.10121        42.06737         1.23691
H         53.88193        42.43870         1.70049
O         59.41350        49.04895         1.40283
H         59.65916        48.31425         2.00444
O         57.10625        62.03734         1.03844
H         57.14280        61.25512         1.62820
O         60.81570        60.59914         2.02343
H         60.71024        61.51977         2.38057
O         55.45200        57.13640        -3.14933
H         54.81791        57.71452        -3.63669
O         64.72608        52.85530         1.51415
H         63.85164        53.17866         1.81424
O         67.57737        65.39366        -1.44385
H         66.87088        65.74471        -2.02726
O         66.24724        52.36815        -1.73728
H         66.81122        51.63690        -2.07710
O         48.22462        53.79479         1.85101
H         47.45429        53.35879         2.29261
O         60.58308        63.27790         2.20390
H         61.04568        63.94661         2.76252
O         69.22861        47.66181         0.03459
H         69.18449        48.50488        -0.46476
O         68.06702        45.44691        -0.42353
H         67.80832        46.18802        -1.02335
O         67.43375        46.51426         3.03852
H         68.06267        46.72273         3.76450
O         38.53382        51.05966         0.58169
H         39.21165        51.64273         0.17607
H         37.76672        48.78522         2.01638
H         36.41122        49.55143         3.90494
H         38.65407        53.22752         4.20827
H         36.78906        51.79427         4.93995
H         39.44622        47.87677         1.54027
H         39.82326        54.47900         3.22348
H         41.42479        46.70814         0.74446
H         41.78158        55.79784         2.70910
H         45.03822        44.63945        -0.35545
H         43.00146        45.80779         0.21760
H         45.38085        58.08128         1.73987
H         43.35962        56.83881         2.22662
H         46.82587        43.88957        -0.05666
H         46.82711        59.11276         0.49053
H         48.93399        42.70871        -0.44290
H         48.91102        60.33779         0.15455
H         52.02549        40.44123        -0.73297
H         50.33318        41.68460        -1.92267
H         52.60806        62.51926         0.15206
H         50.59317        61.19580         0.53874
H         53.78604        39.54628        -0.96105
H         54.11859        63.57689        -0.82753
H         55.92777        38.32554        -1.10193
H         56.20855        64.73949        -1.24059
H         59.68748        36.05271        -0.08255
H         57.55618        37.22833        -0.05698
H         59.53712        66.80785         0.72292
H         57.69541        65.66529        -0.35923
H         61.32744        35.13588        -0.63895
H         61.33056        67.82760         0.08646
H         63.44038        33.94339        -0.73447
H         63.42199        68.96864        -0.39807
H         67.22694        31.85736        -1.01782
H         65.11007        33.01805        -0.81193
H         67.14455        71.11649        -0.88967
H         65.06449        69.94717        -0.44156
H         68.87076        30.95174        -1.21250
H         68.71350        71.81179        -1.83737
H         73.17327        31.05924        -1.25588
H         71.02436        29.78906        -1.45641
H         73.14425        33.47947        -0.81039
H         73.10168        35.33914        -0.45494
H         73.05558        37.71508         0.04254
H         73.01299        39.66514         0.16294
H         72.98097        42.02316         0.77325
H         72.81706        43.57602         2.53858
H         72.47711        45.78733         3.68436
H         72.02416        48.71820         4.32618
H         72.44425        50.96905         3.31688
H         72.92015        52.43051         2.02188
H         73.08602        54.81213         1.50706
H         73.07149        56.79973         1.63516
H         73.12361        59.21256         1.33131
H         73.21357        61.10190         0.72495
H         73.18534        63.54513         0.59216
H         72.97111        65.28474        -0.56798
H         72.94193        67.66034        -1.02575
H         73.08431        69.69080        -0.73502
H         73.02107        71.90708        -1.84540
H         70.82181        72.96030        -2.41055
