         276
 CSIRO Nanostructure Databank - Neutral Graphene Oxide Data Set
C        -10.87206         0.53258         1.16314
C         -9.92329         1.49116         0.47282
C         -8.78147         0.76102        -0.25727
C         -7.48896         1.46774        -0.54623
C         -6.28212         0.70641        -1.06573
C         -4.95383         1.38182        -1.10312
C         -3.78074         0.69983        -1.14075
C         -2.43039         1.37837        -1.28180
C         -1.42921         0.80749        -0.26215
C         -0.19021         1.59435         0.03535
C          1.06919         0.92866         0.54509
C          2.35778         1.68989         0.44516
C          3.59000         0.93602         0.96927
C          4.92174         1.61024         0.56057
C          6.17790         0.84766         0.28543
C          7.45322         1.50565        -0.27879
C          8.64215         0.86044         0.41271
C          9.99992         1.56614         0.37389
C         10.99200         0.64874        -0.33042
C         -9.42513         2.65881         1.31186
C         -8.23561         3.27357         1.13386
C         -7.16597         2.67127         0.29194
C         -5.85092         3.35411         0.08494
C         -5.03096         2.89583        -1.14135
C         -3.67912         3.56585        -1.13488
C         -2.51249         2.89405        -1.17522
C         -1.21931         3.62362        -1.17017
C         -0.01659         2.95263        -0.58189
C          1.06495         3.81205         0.04212
C          2.37943         3.02317         0.16269
C          3.67536         3.83655         0.24258
C          4.88674         2.97975        -0.05928
C          6.17517         3.65116        -0.38704
C          7.43668         2.99553         0.15582
C          8.73955         3.69269        -0.21059
C          9.90134         2.98449        -0.17439
C         -7.87566         4.56170         1.86767
C         -6.94137         5.44522         1.01015
C         -5.59789         4.71779         0.73250
C         -4.66553         5.62427        -0.06027
C         -3.78679         5.08383        -1.18790
C         -2.43406         5.78026        -1.14416
C         -1.25638         5.10925        -1.17999
C          0.03848         5.79487        -1.12117
C          1.14563         5.17391        -0.62536
C          2.39765         5.94266        -0.27128
C          3.60555         5.07571        -0.71604
C          4.92271         5.86249        -0.81090
C          6.21696         5.12803        -0.64107
C          7.48455         5.83977        -0.32790
C          8.66053         5.15446        -0.26791
C         -6.63660         6.77557         1.66300
C         -5.52012         7.47586         1.31537
C         -4.60730         6.93921         0.28769
C         -3.63536         7.86817        -0.35668
C         -2.59992         7.27904        -1.32540
C         -1.24482         8.01490        -1.35755
C          0.06028         7.24879        -1.42153
C          1.32476         7.99628        -1.20874
C          2.45956         7.35363        -0.82482
C          3.74319         8.03989        -0.75619
C          4.92082         7.34278        -0.70801
C          6.26420         8.04071        -0.84188
C          7.37121         7.32323        -0.02768
C         -5.17806         8.73669         1.96344
C         -4.13673         9.50237         1.57091
C         -3.35561         9.18371         0.35547
C         -2.07894         9.85158         0.12371
C         -1.09930         9.37828        -0.75826
C          0.12913        10.05061        -0.84223
C          1.32784         9.48501        -1.55992
C          2.59904        10.17523        -1.12833
C          3.73429         9.50252        -0.79988
C          4.99657        10.17035        -0.48528
C          6.16255         9.49854        -0.46192
C        -10.97867        -0.78644         0.87219
C         -9.93722        -1.52287         0.17065
C         -8.71528        -0.73446        -0.09740
C         -7.47745        -1.49570        -0.44965
C         -6.31685        -0.78476        -1.07096
C         -5.02076        -1.53117        -1.10769
C         -3.73201        -0.78891        -1.14864
C         -2.40059        -1.49987        -0.88110
C         -1.48610        -0.69947         0.07437
C         -0.08920        -1.36176         0.12328
C          1.10601        -0.57959         0.60728
C          2.42718        -1.28006         0.55692
C          3.58522        -0.57853         0.69243
C          4.86798        -1.34685         0.50018
C          6.13292        -0.64024         0.12077
C          7.47844        -1.30207        -0.05986
C          8.63443        -0.62768         0.60008
C          9.98314        -1.34497         0.80306
C         10.97454        -0.68446        -0.15591
C         -9.92145        -2.89082         0.01090
C         -8.75859        -3.62140        -0.47258
C         -7.58655        -2.95017        -0.70072
C         -6.30957        -3.63121        -1.13996
C         -5.09280        -2.91737        -0.47068
C         -3.73629        -3.62903        -0.53820
C         -2.56642        -2.94364        -0.37742
C         -1.40787        -3.59351         0.38627
C         -0.08070        -2.84820         0.28360
C          1.14504        -3.53413         0.82046
C          2.43374        -2.78402         0.69668
C          3.69711        -3.53609         0.27263
C          4.90316        -2.80906         0.89214
C          6.16154        -3.57482         1.23916
C          7.49447        -2.97120         1.66185
C          8.74435        -3.58904         1.06365
C          9.84280        -2.84820         0.66719
C         -8.85825        -5.14386        -0.58774
C         -7.64389        -5.82480        -1.30761
C         -6.38071        -5.10872        -0.81811
C         -5.07115        -5.83518        -0.67060
C         -3.79944        -5.09424        -0.30641
C         -2.51664        -5.83245        -0.09680
C         -1.24340        -5.08070         0.05515
C         -0.07473        -5.74239         0.25153
C          1.05399        -5.05688         1.00741
C          2.39087        -5.79512         0.84050
C          3.65972        -5.04498         0.59574
C          4.94182        -5.72100         1.00261
C          6.20921        -4.97764         0.61925
C          7.48612        -5.74101         0.94092
C          8.70428        -5.01280         0.95850
C         -7.54051        -7.31529        -0.99990
C         -6.34777        -7.97335        -1.05482
C         -5.16087        -7.13035        -1.42259
C         -3.57441        -8.17105        -0.10054
C         -2.44961        -7.29394        -0.40768
C         -1.11765        -8.03916        -0.33615
C          0.07721        -7.21774         0.06058
C          1.25996        -7.95328         0.62555
C          2.36195        -7.22030         1.42289
C          3.70284        -8.08623         1.28065
C          4.95916        -7.18463         1.27142
C          6.24829        -7.98476         1.03177
C          7.47451        -7.12034         1.04381
C         -6.19533        -9.40310        -0.74998
C         -5.04854       -10.09954        -0.55867
C         -3.64679        -9.53390        -0.73608
C         -2.47430       -10.28799        -0.01611
C         -1.14436        -9.50740        -0.04361
C         -0.00211       -10.14621         0.29654
C          1.29569        -9.48723         0.72197
C          2.54555        -9.82076        -0.08765
C          3.65824        -9.06244         0.10916
C          4.89022        -9.27468        -0.64484
C          6.07750        -8.74824        -0.28037
O          1.22790        -7.56884        -0.77875
O         -5.34487        -2.78406         0.87954
O          2.34865         6.18955         1.11768
O          5.72084         5.44728        -1.99773
O          6.17742        -4.78433        -0.82084
O         -0.61761         7.73629        -2.64853
O          2.97371        -5.75833        -0.48561
O          0.87277         0.21395         1.80423
O          5.91140         1.37431         1.61171
O         -6.00248        -5.67060         0.45776
O          5.41469         2.93607        -1.42953
O          3.81694        -8.87676         2.44808
O          5.13500        -3.26325         2.23888
O          0.22790        -2.23277        -0.99765
O         -0.15724         3.04453        -2.01477
O         -4.37057         5.43166        -2.42764
O         -1.32894         1.59131         0.96094
O          4.99010        -6.24265         2.36533
O          5.23614        -1.13315        -0.91536
O          1.83453        -3.02623         2.01454
O         -4.20642         9.08948        -0.86652
O          8.28168         0.27583         1.68151
O          7.54368        -2.12875         2.53488
O         -1.71001        -7.64596        -1.60235
O         -6.60288        -0.04915        -2.28379
O         -7.70469        -1.08035         0.93481
O         -5.95601         2.31406         1.10134
O         -4.33430        -1.40843        -2.36597
O         -4.50491        -7.29983        -2.45847
O          7.40655         3.03901         1.55420
O         -3.39573        -5.56409         1.07041
O         -8.55477         1.42973        -1.54048
O          6.40689        -8.93427         2.09216
H          5.48021        -9.13786         2.43391
O         10.44651        -1.10495         2.14111
H         10.37622        -0.12922         2.30245
O         -1.91434         1.05570        -2.58602
H         -2.53528         1.39722        -3.26224
O          3.48603         1.06441         2.40193
H          4.39127         1.04086         2.78555
O         -9.05094         5.29732         2.19251
H         -9.42763         5.62396         1.34793
O          0.65017         4.11026         1.39708
H          1.20904         4.88277         1.68901
O          0.59875        -5.22927         2.36628
H          1.10996        -4.61212         2.93781
O          6.65477         7.99732        -2.23803
H          6.44050         7.09155        -2.57044
O         10.44317         1.70964         1.74953
H          9.69866         2.12384         2.24311
O        -10.77132         2.11327        -0.53568
H        -10.18702         2.31194        -1.30683
O         -6.13684        -3.53568        -2.56539
H         -6.96311        -3.84329        -3.00306
O         -3.20063         7.45004        -2.62086
H         -2.60086         7.04886        -3.28716
O          7.62033        -2.23702        -0.84865
H          6.81022        -4.06425        -1.05930
O         -1.76320        -1.59823        -2.16411
H         -2.46933        -1.75340        -2.83111
O         -1.75757        -3.50300         1.78349
H         -2.69695        -3.76955         1.89678
O         -2.85828       -10.47991         1.33811
H         -2.11145       -10.87412         1.83577
O         -5.74637         3.26347        -2.32730
H         -5.39144         4.14731        -2.64444
O         -8.97583        -5.69156         0.72634
H         -8.24245        -5.33989         1.27525
O         -4.24879        -7.98929         0.99175
H         -4.07698        -7.06545         1.37530
O         -2.07780        -0.81706         1.37125
H         -1.69289        -0.10902         1.93922
O          3.27055         4.59841        -2.02114
H          4.11423         4.35708        -2.47331
O          1.19621         9.67169        -2.99002
H          0.47775         9.06620        -3.29700
O          3.90764         4.25013         1.59110
H          3.29127         5.01377         1.79272
O          1.43541        -9.93249         2.08005
H          2.36719        -9.70749         2.38586
O         -7.63314         5.67849        -0.23681
H         -7.08098         6.27164        -0.79080
O          7.57724         1.33920        -1.68007
H          6.80005         1.77203        -2.10864
O          7.02556         7.45392         1.35670
H          7.61846         6.88616         1.89057
O          2.05895        -7.16999         2.80208
H          2.68816        -7.80951         3.23733
O         -3.29472        -9.58211        -2.11104
H         -3.75059        -8.85653        -2.60708
O          3.74351        -3.38803        -1.15003
H          4.44115        -3.99016        -1.49787
O         -4.94386         4.49725         2.00066
H         -5.04792         3.54234         2.22524
O         -7.83030        -5.64867        -2.72718
H         -7.17969        -6.20263        -3.20855
H         11.73053        -1.31201        -0.65402
H         11.75313         1.10779        -0.98023
H         10.85656         3.50548        -0.35056
H          9.60002         5.71448        -0.12521
H          8.36189         7.82529        -0.22434
H          7.10060        10.03017        -0.24141
H          4.97089        11.25097        -0.27758
H          2.61558        11.27428        -1.18927
H          0.24567        10.96881        -0.24206
H         -1.85569        10.75421         0.71562
H         -3.87082        10.41385         2.12653
H         -5.77515         9.03444         2.83800
H         -7.35206         7.18750         2.39120
H         -7.35492         4.30985         2.82769
H        -10.16828         3.15051         1.96079
H        -11.65075         1.00083         1.78505
H        -11.80928        -1.36866         1.30134
H        -10.81221        -3.47542         0.28566
H         -9.78907        -5.41931        -1.14545
H         -8.46186        -7.86518        -0.74952
H         -7.14514        -9.94671        -0.62022
H         -5.12769       -11.17228        -0.32834
H         -2.34366       -11.28109        -0.53064
H         -0.05520       -11.23076         0.49269
H          2.52337       -10.60693        -0.85809
H          4.82805        -9.90093        -1.54926
H          6.97605        -8.96000        -0.87888
H          8.41291        -7.62539         1.32535
H          9.65406        -5.56900         0.89678
H         10.69002        -3.39335         0.21636
