         349
 CSIRO Nanostructure Databank - Neutral Graphene Oxide Data Set
C          1.18429         3.29327         0.66594
C          0.00504         3.95767         0.55007
C          1.07392         6.15348         0.27007
C         -0.05158         5.38760         0.38937
C          1.00816         7.62454         0.02569
C         -0.12293         8.41896         0.57416
C          1.19238        10.52889         0.48162
C         -0.07092         9.75840         0.66482
C          1.15533        11.98909         0.18175
C         -0.00923        12.69065         0.37595
C          1.05747        14.86135        -0.45799
C         -0.13409        14.11130         0.04280
C          1.09414        16.34535        -0.29415
C         -0.10278        17.06941        -0.20195
C          1.12624        19.16500        -0.07196
C         -0.07989        18.45710        -0.07219
C          1.08683        20.65050         0.21102
C          0.01682        21.40377        -0.54581
C          1.23237        23.51597        -0.22565
C          0.07097        22.74703        -0.66100
C          1.20485        24.92508        -0.14088
C          0.01752        25.70507        -0.42755
C          1.07472        27.78762         0.47816
C         -0.04719        27.03358        -0.17885
C          1.22570        29.19619        -0.05430
C          3.72649         3.34526         0.55648
C          2.45363         4.02101         0.76506
C          3.63765         6.17293        -0.03211
C          2.40617         5.55147         0.50169
C          3.55711         7.57102        -0.52459
C          2.28489         8.33741        -0.27930
C          3.64663        10.52737        -0.33396
C          2.42591         9.78438         0.08131
C          3.59544        11.96982        -0.34310
C          2.36595        12.64395        -0.24503
C          3.56500        14.82942        -0.10444
C          2.36087        14.09999        -0.71326
C          3.57286        16.29323        -0.51817
C          2.31652        17.04640        -0.30865
C          3.62756        19.15791        -0.10348
C          2.34574        18.45924        -0.20842
C          3.60205        20.60108         0.03405
C          2.42222        21.33316         0.04649
C          3.67459        23.45668         0.20529
C          2.43586        22.76973         0.02220
C          3.64447        24.91048         0.45962
C          2.38510        25.66569         0.26515
C          3.60455        27.78484         0.92692
C          2.37835        27.03163         0.42682
C          3.60619        29.27297         0.57702
C          2.38540        29.87369         0.05506
C          6.16513         3.41973         0.43635
C          4.90357         4.07312         0.37481
C          6.10281         6.13487        -0.39725
C          4.83382         5.48798         0.01074
C          6.12953         7.61798        -0.72686
C          4.82627         8.36185        -0.75024
C          6.09154        10.54649        -0.52943
C          4.83543         9.83718        -0.54094
C          6.06517        11.94828        -0.50304
C          4.84362        12.70266        -0.49482
C          6.08341        14.87218        -0.44205
C          4.87189        14.12039        -0.40839
C          6.14153        16.27001        -0.29199
C          4.87890        17.04082        -0.43389
C          6.10595        19.08237         0.41932
C          4.83206        18.46784        -0.11504
C          6.17153        20.56563         0.11381
C          4.88587        21.32013        -0.01174
C          6.15405        23.44970         0.25510
C          4.88507        22.76595         0.24733
C          6.13393        24.85662         0.02547
C          4.94748        25.67096         0.35781
C          6.01954        27.97151         0.41872
C          4.90865        27.16249         0.42227
C          5.98413        29.27358         1.20555
C          4.74196        29.99950         0.74493
C          8.64864         3.42603         0.37781
C          7.39075         4.11747         0.28303
C          8.63300         6.15651        -0.50768
C          7.36622         5.49141        -0.03645
C          8.59750         7.67867        -0.46383
C          7.38999         8.37921        -0.54538
C          8.58648        10.50042        -0.44188
C          7.35758         9.81190        -0.49602
C          8.61657        11.96377        -0.29587
C          7.32022        12.70837        -0.33325
C          8.63322        14.85032        -0.55260
C          7.33627        14.12984        -0.84325
C          8.63696        16.25974        -0.39717
C          7.38841        16.99112        -0.23454
C          8.59882        19.15426        -0.03955
C          7.39217        18.39378        -0.02013
C          8.66492        20.56889         0.08883
C          7.42471        21.29470         0.56624
C          8.61310        23.44311        -0.01224
C          7.39126        22.75546         0.19615
C          8.58108        24.84626        -0.23532
C          7.31619        25.41685        -0.44049
C          8.50210        27.97212         0.36355
C          7.28748        27.56562        -0.11771
C          8.49391        29.26472         1.04171
C          7.33124        29.96785         1.20420
C         11.10272         3.45248         0.46712
C          9.86909         4.10605         0.33873
C         11.15514         6.20284        -0.23814
C          9.83732         5.61977         0.29228
C         11.08634         7.71617        -0.21414
C          9.83797         8.38696        -0.42723
C         11.06747        10.53679        -0.58518
C          9.82839         9.81158        -0.48477
C         11.03978        11.97163        -0.75889
C          9.86408        12.69091        -0.60234
C         11.10307        14.83943        -0.68326
C          9.84624        14.13203        -0.61813
C         11.10015        16.27771        -0.58552
C          9.87840        16.95263        -0.37791
C         11.12398        19.18127        -0.43380
C          9.87164        18.41072        -0.14113
C         11.00520        20.63072        -0.75602
C          9.83606        21.33392        -0.20917
C         11.05163        23.53233        -0.54314
C          9.86290        22.75345        -0.20920
C         10.98842        24.99503        -0.41414
C          9.77848        25.65578        -0.24509
C         10.97317        27.93573         0.01346
C          9.75466        27.08908         0.35814
C         11.00156        29.36791         0.61522
C          9.82419        29.84509         1.45604
C         13.50104         3.49022         0.97854
C         12.34355         4.15562         0.63121
C         13.48167         6.34826         0.69282
C         12.35048         5.61422         0.47669
C         13.48015         7.85585         0.56308
C         12.25503         8.45058        -0.09729
C         13.57309        10.52682        -0.48649
C         12.28945         9.84578        -0.41574
C         13.61704        11.91689        -0.97402
C         12.28004        12.69026        -1.09993
C         13.55718        14.87761        -1.08611
C         12.29127        14.14806        -0.96331
C         13.55860        16.33127        -0.82687
C         12.35380        16.99202        -0.69536
C         13.57551        19.22677        -0.52706
C         12.32710        18.47424        -1.00369
C         13.57084        20.66298        -1.02418
C         12.30869        21.42036        -1.05548
C         13.53704        23.63601        -1.03049
C         12.26565        22.88084        -0.84743
C         13.51946        25.12929        -0.89869
C         12.17764        25.87674        -0.80106
C         13.45161        27.86044         0.31853
C         12.22772        27.22721        -0.11591
C         13.49968        29.30394         0.65769
C         12.29317        29.96202         0.92247
C         16.02807         3.49901         1.12477
C         14.73557         4.23013         1.41188
C         15.93632         6.33629         0.81026
C         14.75044         5.67539         0.96049
C         15.94247         7.81288         0.62279
C         14.75280         8.37107        -0.11503
C         16.04449        10.56812        -0.26545
C         14.76752         9.88186        -0.20451
C         16.05328        12.00043        -0.51595
C         14.87279        12.66144        -0.80046
C         16.03527        14.87585        -0.41723
C         14.87470        14.11898        -1.02481
C         16.07981        16.32704        -0.83442
C         14.82817        17.06391        -0.89283
C         16.06938        19.20656        -1.01040
C         14.82568        18.45456        -0.87442
C         16.09191        20.66520        -0.72913
C         14.84705        21.37712        -1.07899
C         16.08466        23.51399        -0.41889
C         14.86713        22.89804        -1.00439
C         16.05249        24.98715        -0.22613
C         14.81196        25.80186        -0.48731
C         16.01810        27.86040         0.37720
C         14.75215        27.10670         0.25642
C         15.99154        29.26489         0.65508
C         14.74437        29.93906         0.81502
C         18.47386         3.45957         0.75833
C         17.19810         4.13948         0.84898
C         18.47965         6.31595         0.91363
C         17.21070         5.60529         0.48166
C         18.51355         7.82867         0.84336
C         17.23204         8.57280         0.59734
C         18.55488        10.49472        -0.47877
C         17.24339         9.89688        -0.04148
C         18.55415        12.00902        -0.42632
C         17.32949        12.72254        -0.49150
C         18.56657        14.84291        -0.61262
C         17.33998        14.13004        -0.55825
C         18.56351        16.27508        -0.69491
C         17.30250        16.97464        -0.81680
C         18.58315        19.13775        -0.56813
C         17.36156        18.43198        -0.97893
C         18.44153        20.48709         0.11419
C         17.24257        21.32597        -0.36829
C         18.36024        23.34422         0.70224
C         17.21817        22.77092        -0.14876
C         18.42007        24.88589         0.77534
C         17.16186        25.67145         0.50732
C         18.44958        27.81212         0.65373
C         17.22326        27.15049         0.39731
C         18.44862        29.23928         0.79355
C         17.22077        29.93779         0.81505
C         19.66221         4.14281         0.65316
C         20.93182         6.29401         0.68214
C         19.73568         5.57213         0.71751
C         20.96350         7.69749         0.59968
C         19.79626         8.48813         0.52716
C         20.99112        10.60534         0.04684
C         19.79640         9.85419         0.12563
C         21.00036        11.95175        -0.27503
C         19.78835        12.69630        -0.45245
C         21.00692        14.88077        -0.67630
C         19.80449        14.13234        -0.58474
C         20.99449        16.26052        -0.75517
C         19.78007        16.99511        -0.74956
C         21.00969        19.23365        -0.60145
C         19.77552        18.45595        -0.62757
C         20.98720        20.56516        -0.38558
C         19.78006        21.23687         0.15679
C         20.86041        23.58540        -0.00956
C         19.73945        22.72139         0.39835
C         20.83187        24.94325         0.15522
C         19.67983        25.63827         0.61469
C         20.88349        27.79824         0.88330
C         19.68127        27.07233         0.72776
C         20.87772        29.19507         0.99655
C         19.69094        29.91391         0.96371
O         18.46965         7.11181         2.12599
O          6.18654         6.63402        -1.81389
O         14.01166        26.99331         1.51046
O         -0.00310        14.43198        -1.38284
O         20.10672        21.78534         1.48427
O         12.96805        12.12650        -2.26829
O         16.33512         8.57270         1.78919
O          2.17312        10.10104         1.50441
O         17.51766        25.30003         1.86899
O          7.25155        26.61888        -1.13734
O          7.96667        12.47354         0.94944
O          4.38973        25.22529         1.68973
O         16.80953        18.91350        -2.26263
O         10.82611        18.83576         0.93184
O          4.02252         7.88241        -1.87737
O         13.58736        24.52169        -2.22341
O          5.73277        20.93118        -1.20749
O          4.24974        16.66241        -1.74243
O         15.84388        25.73352        -1.49692
O          1.31912         8.06355        -1.35171
O         11.34018        20.98497        -2.10705
O         14.37912        14.56549        -2.30090
O         10.72302        29.12949        -0.79977
O         15.06598        22.22929        -2.28166
O          2.52917         5.01474         1.85354
O          3.36354        14.80519         1.33454
H          4.19309        15.08387         1.77616
O          5.79195        28.92215         2.60971
H          6.58224        28.42543         2.90811
O          3.50957        27.68663         2.37824
H          3.78318        26.76371         2.60656
O         13.48803         8.39810         1.91117
H         12.85738         7.88459         2.45707
O         14.81476         7.84970        -1.46111
H         14.02316         8.15690        -1.95212
O          8.76103         5.77164        -1.91319
H          7.90651         6.03973        -2.34003
O          0.73612        27.91004         1.90217
H          1.59086        28.04574         2.38266
O         17.28970         5.66198        -0.98269
H         16.43857         5.34351        -1.35186
O          7.43973        21.22274         2.03722
H          8.28162        21.61811         2.34942
O          2.55231        14.06244        -2.14221
H          1.66424        13.94493        -2.54802
O         10.06743        29.40144         2.81297
H         10.97249        29.67975         3.06974
O         17.98374        22.88194         2.02973
H         18.53912        23.35552         2.68478
O          7.26762        13.99566        -2.30012
H          7.00076        14.86073        -2.67774
O         11.84386        26.29394        -2.16657
H         12.29418        25.65706        -2.77572
O          9.92229        26.75610         1.78029
H          9.93275        27.59627         2.30703
O         18.65043        10.15268        -1.91872
H         19.45771        10.58941        -2.26601
O         15.72980        14.88744         1.02323
H         16.49241        15.28931         1.49115
O          9.67754         6.06373         1.66194
H          9.63188         7.04362         1.66581
O         13.51444        19.28615         0.93421
H         14.38266        19.59391         1.26960
O         18.08641        20.13304         1.48239
H         18.25045        20.95182         2.01901
O         11.37471         5.82006        -1.62017
H         10.50256         5.83610        -2.08796
O         14.65216         4.29142         2.88568
H         15.38776         4.86203         3.19686
O          0.73182        20.75845         1.63228
H          0.70124        21.71326         1.85496
O         12.24206        18.55103        -2.43928
H         13.08395        18.22758        -2.82366
O          6.03531        18.90824         1.86609
H          6.65743        19.56126         2.27295
H          1.21213         2.19374         0.65480
H         -0.93859         3.39628         0.50291
H         -1.04147         5.84929         0.26472
H         -1.05544         7.89109         0.82273
H         -0.96459        10.29822         1.01000
H         -0.89166        12.20061         0.80852
H         -0.95271        14.66393         0.54952
H         -1.06835        16.54867        -0.24128
H         -1.02926        18.99709         0.04639
H         -0.86975        20.86208        -0.90652
H         -0.76677        23.27837        -1.13471
H         -0.85846        25.20099        -0.86003
H         -0.97440        27.58550        -0.39567
H          0.32951        29.70004        -0.44728
H          3.76695         2.24772         0.61732
H          2.44241        30.92462        -0.27052
H          6.18820         2.34294         0.65764
H          4.76778        31.07476         0.51115
H          8.63871         2.33177         0.49531
H          7.37533        30.98432         1.62511
H         11.11409         2.35431         0.55087
H          9.77921        30.97028         1.44657
H         13.48496         2.39663         1.10488
H         12.31508        30.93470         1.43850
H         16.04152         2.41555         1.32731
H         14.75795        31.00563         1.08318
H         18.48075         2.36020         0.80368
H         17.22238        31.02210         0.99970
H         20.60376         3.57849         0.57449
H         21.88383         5.74556         0.62201
H         21.94414         8.17230         0.45522
H         21.94603        10.13192         0.31557
H         21.96461        12.47583        -0.28947
H         21.97651        14.36538        -0.67971
H         21.95416        16.79128        -0.81119
H         21.95512        18.74768        -0.87852
H         21.92282        21.13961        -0.42818
H         21.78280        23.10904        -0.36674
H         21.72455        25.52360        -0.11661
H         21.84063        27.26402         0.95587
H         21.83150        29.72462         1.13077
H         19.69973        31.00778         1.07093
