         661
 CSIRO Nanostructure Databank - Neutral Graphene Oxide Data Set
C          5.91913        31.79083         1.41763
C          5.87186        32.99110         2.02813
C          8.55140        27.80596        -0.06421
C          8.45012        29.15559         0.40250
C          7.25352        29.80983         0.58219
C          8.40770        31.82831         1.57033
C          7.20653        31.30105         0.80989
C          8.36737        33.10795         2.17407
C          7.07348        33.79311         2.22345
C          8.26601        35.89582         2.41593
C          7.02931        35.15315         2.37532
C          8.30865        37.14955         1.85587
C         11.12044        23.84997        -1.50053
C         11.05946        25.13774        -0.89280
C          9.83980        25.80907        -0.73708
C         11.00610        27.73510         0.25178
C          9.77572        27.12486        -0.19323
C         10.99893        29.14136         0.67808
C          9.70682        29.89172         0.70289
C         10.75040        31.64160         2.17447
C          9.61801        31.13386         1.50772
C         10.71802        32.91535         2.80071
C          9.53656        33.71598         2.68957
C         10.74381        35.96481         2.74995
C          9.45777        35.21594         3.07448
C         10.83199        37.16706         1.83994
C          9.52290        37.88393         1.62381
C         10.82663        39.85285         0.92795
C          9.56475        39.13479         1.06427
C         10.89692        41.09259         0.17880
C         13.70607        19.85177        -2.80294
C         13.67974        21.20556        -2.38512
C         12.44788        21.91028        -2.28350
C         13.58277        23.95165        -1.43416
C         12.34400        23.21427        -1.75966
C         13.51280        25.15203        -0.58346
C         12.28132        25.75822        -0.39614
C         13.42794        27.64214         0.78398
C         12.21780        27.05800         0.22361
C         13.31992        28.89493         1.53257
C         12.12781        29.60179         1.50403
C         13.30188        31.54613         2.67036
C         11.97391        30.82659         2.28041
C         13.23715        32.98711         2.96649
C         11.97204        33.41199         3.35467
C         13.23942        36.09134         2.94976
C         11.92053        35.57505         3.29488
C         13.23918        37.41014         2.53082
C         11.89498        38.11829         2.39550
C         13.14396        40.24737         1.77564
C         11.95477        39.36790         1.55722
C         13.24938        41.37159         0.76435
C         12.07624        41.79406         0.05043
C         13.36227        43.89116        -0.65817
C         12.17394        42.97776        -0.89689
C         13.39033        45.16445        -1.19646
C         16.14960        15.63441        -3.51280
C         16.16172        16.99417        -3.16955
C         14.96763        17.77749        -3.25710
C         16.18174        19.83419        -2.60704
C         14.91155        19.12298        -2.87914
C         16.13121        21.15609        -1.95220
C         14.90645        21.82221        -1.94076
C         15.97691        23.67469        -0.57296
C         14.89127        23.23357        -1.52405
C         15.96777        25.15092        -0.30345
C         14.73833        25.77011        -0.11846
C         15.84405        27.33439         1.49084
C         14.64799        27.01560         0.61548
C         15.77159        28.71141         2.17093
C         14.52255        29.51499         2.05083
C         15.83256        31.64318         2.32898
C         14.54368        30.86197         2.35873
C         15.69045        33.12849         2.69108
C         14.45486        33.80898         2.92812
C         15.68431        35.96215         2.79420
C         14.45544        35.25631         2.95023
C         15.71494        37.48524         2.91485
C         14.45830        38.15854         2.37294
C         15.67146        40.25602         1.81436
C         14.42967        39.47427         1.99249
C         15.51716        41.72447         1.59017
C         14.40337        42.14321         0.76479
C         15.61622        44.25023         0.26554
C         14.47716        43.43420         0.11412
C         15.72221        45.47028        -0.44211
C         14.56181        45.98052        -1.10922
C         15.79940        48.03260        -1.60116
C         14.60813        47.28275        -1.64238
C         15.77382        49.40862        -1.99318
C         18.50847        11.29368        -4.02293
C         18.37002        12.61872        -3.51372
C         17.29511        13.48438        -3.80315
C         18.44254        15.35331        -2.62932
C         17.27842        14.80496        -3.29623
C         18.49080        16.76995        -2.35646
C         17.38595        17.56633        -2.66696
C         18.61969        19.63066        -1.84154
C         17.46173        19.02895        -2.52069
C         18.57516        20.99356        -1.44162
C         17.33741        21.75658        -1.44794
C         18.46265        23.68963        -0.36453
C         17.31554        23.06162        -0.88976
C         18.48349        25.05541         0.03377
C         17.25729        25.93262        -0.20844
C         18.32022        27.66625         1.22746
C         17.17686        27.06139         0.81067
C         18.30491        28.71709         2.25316
C         17.01903        29.36976         2.68500
C         18.23914        31.70622         2.90019
C         16.96257        30.91100         3.13114
C         18.15727        33.09234         2.38788
C         16.89207        33.85466         2.60681
C         18.19518        36.01791         2.65391
C         16.90086        35.26785         2.67541
C         18.18897        37.46207         2.32881
C         16.99205        38.13391         2.41698
C         18.28183        40.27630         2.19792
C         16.98001        39.57318         2.06552
C         18.38057        41.65448         2.39095
C         16.43129        42.65872         1.97367
C         18.07860        44.49124         1.13270
C         16.66640        43.91835         1.26045
C         18.24816        45.31325        -0.19470
C         16.98256        46.15151        -0.51362
C         18.28072        48.12462        -1.34532
C         17.01409        47.39250        -1.14322
C         18.20104        49.58811        -1.65782
C         16.89735        50.24140        -1.94136
C         18.04671        52.41399        -2.32972
C         16.88150        51.60128        -2.33238
C         18.10729        53.70076        -2.86904
C         20.67475         6.88593        -3.72431
C         20.75865         8.26117        -3.68984
C         19.72421         9.12638        -4.16521
C         20.62720        10.97670        -2.80986
C         19.64545        10.48263        -3.75673
C         20.28203        12.12552        -2.13304
C         19.37800        13.11430        -2.61156
C         20.88486        15.15949        -2.08048
C         19.51554        14.49539        -2.28392
C         20.83396        16.60625        -1.60523
C         19.72161        17.38132        -1.83777
C         20.94942        19.48001        -1.17304
C         19.76854        18.83968        -1.60440
C         20.95256        20.86139        -0.84011
C         19.73363        21.57282        -0.87677
C         20.94930        23.49658         0.32073
C         19.67406        22.87098        -0.19994
C         20.90274        24.94880         0.61249
C         19.67133        25.66606         0.46741
C         20.86210        27.66433         1.42144
C         19.65906        27.17393         0.64848
C         20.75949        29.07397         1.93074
C         19.49649        29.13923         2.75784
C         20.74344        31.83321         2.95002
C         19.47183        31.23963         3.26998
C         20.74910        33.14370         2.51996
C         19.46088        33.82389         2.26829
C         20.69751        35.99817         1.99014
C         19.48709        35.29684         2.46736
C         20.63290        37.37325         1.73013
C         19.43078        38.11255         1.93593
C         20.68158        40.28827         1.78844
C         19.46501        39.55574         1.89888
C         20.70488        41.69544         1.85493
C         19.50525        42.41900         2.04929
C         20.67652        44.58430         1.47155
C         19.36711        43.89128         1.75177
C         20.74065        45.78649         0.60158
C         19.55525        46.16639        -0.20682
C         20.69562        48.47244        -0.48258
C         19.55874        47.55812        -0.78882
C         20.61334        49.80341        -0.83213
C         19.33532        50.45167        -1.23379
C         20.53945        52.59798        -1.89714
C         19.25466        51.89335        -1.63689
C         20.52578        54.01806        -2.31017
C         19.29745        54.51855        -2.86609
C         20.51474        56.54869        -3.54079
C         19.30858        55.80259        -3.42670
C         20.54451        57.78017        -4.22994
C         22.92387         3.89169        -3.40212
C         21.79250         4.64030        -3.61694
C         23.02164         6.66255        -2.80253
C         21.66861         6.00854        -3.01101
C         23.11062         8.02094        -2.72360
C         21.99617         8.88725        -3.15586
C         23.12518        10.78980        -1.81549
C         21.95708        10.31374        -2.65578
C         23.21752        12.19424        -1.38291
C         22.07285        13.00274        -1.25720
C         23.30571        15.00986        -1.33655
C         22.05326        14.38629        -1.46967
C         23.33073        16.45622        -0.92276
C         22.18416        17.31652        -1.49660
C         23.47045        19.40365        -0.92550
C         22.13848        18.66025        -0.74308
C         23.38726        20.78181        -0.93455
C         22.20499        21.53560        -0.54484
C         23.40514        23.50455         0.59497
C         22.26467        22.84381         0.03604
C         23.28653        24.77349         1.29373
C         22.05921        25.54410         1.13770
C         23.12333        27.48470         2.35850
C         21.97040        26.89860         1.63794
C         23.18642        28.95931         2.49183
C         22.00022        29.65760         2.55509
C         23.26128        31.78536         2.73710
C         22.01923        31.05080         3.18675
C         23.21181        33.16993         2.40222
C         21.96564        33.86838         2.29458
C         23.13712        35.89454         1.57043
C         21.92943        35.25034         1.92987
C         23.11368        37.25976         0.91911
C         21.83841        38.07022         1.19956
C         23.18329        40.29659         1.29592
C         21.88869        39.57170         1.31566
C         23.21030        41.64574         1.47167
C         22.02559        42.38815         2.08888
C         23.26554        44.60740         1.55815
C         21.98230        43.89392         1.81507
C         23.25414        45.78840         0.59820
C         21.92029        46.50168         0.45900
C         23.12592        48.63746         0.04341
C         21.94109        47.87315        -0.01845
C         23.08581        50.08719        -0.20297
C         21.75570        50.70321        -0.61450
C         22.99289        52.82809        -1.22760
C         21.79338        51.96017        -1.43019
C         22.93289        54.25817        -1.64063
C         21.70046        54.77105        -2.30846
C         22.96889        56.70193        -3.24135
C         21.74143        56.02407        -2.99809
C         22.98668        57.90510        -3.95956
C         21.75387        58.46798        -4.44472
C         22.98950        60.34000        -5.43509
C         21.78277        59.68808        -5.17765
C         24.06680         4.42434        -2.75974
C         25.36727         6.38536        -2.04059
C         24.17759         5.81942        -2.50814
C         25.57927         7.82802        -2.02778
C         24.37789         8.70700        -2.38100
C         25.47343        10.60712        -0.98082
C         24.28664        10.05738        -1.77514
C         25.74996        12.07043        -1.34407
C         24.45740        12.84453        -1.26396
C         25.68416        14.87089        -0.61748
C         24.45907        14.23708        -1.07666
C         25.80711        16.23220        -0.57930
C         24.70498        17.11977        -1.14470
C         26.15570        19.04851        -0.61560
C         24.71305        18.56459        -0.53926
C         26.32633        21.20879        -0.03635
C         25.17111        21.95161        -0.24956
C         25.56217        23.10356         1.81187
C         24.73023        22.90818         0.66628
C         25.53957        24.44427         2.52935
C         24.37193        25.27872         2.01830
C         25.66951        27.41948         2.45165
C         24.38420        26.68384         2.48796
C         25.67450        28.84613         2.47978
C         24.46523        29.60231         2.62267
C         25.71318        31.72454         2.43367
C         24.48685        31.04323         2.61571
C         25.69476        33.23398         2.60414
C         24.41591        33.87717         2.11817
C         25.58750        35.87674         1.14511
C         24.36153        35.20190         1.65228
C         25.58741        37.35485         1.04796
C         24.41464        38.03133         1.13400
C         25.72272        40.19177         1.00014
C         24.46288        39.50165         1.47823
C         25.65203        41.66609         0.71726
C         24.52102        42.34460         1.46370
C         25.78962        44.52247         1.07431
C         24.55642        43.83697         1.52883
C         25.78238        45.99998         0.99631
C         24.45562        46.69198         0.83209
C         25.62531        48.72684         0.03009
C         24.42696        48.05709         0.27028
C         25.64389        50.23514        -0.09184
C         24.31813        50.81820        -0.45586
C         25.53242        52.90113        -1.27234
C         24.28813        52.05724        -1.29224
C         25.49240        54.18001        -1.78201
C         24.23901        55.05578        -1.72149
C         25.56038        56.96171        -2.80964
C         24.27931        56.07662        -2.86634
C         25.44058        58.17277        -3.67531
C         24.23906        58.60990        -4.21337
C         24.19476        59.82178        -4.97209
C         26.73061         8.45590        -1.34561
C         27.96960        10.47285        -0.70293
C         26.75480         9.80094        -1.05616
C         28.07245        11.83421        -0.36712
C         26.86420        12.66838        -0.48401
C         27.79952        14.70767         0.59969
C         26.77578        14.00880        -0.15588
C         28.09146        16.01918         0.44649
C         27.16722        16.84013        -0.39450
C         28.25607        18.88324         0.64401
C         27.09489        18.28213         0.03823
C         28.08038        20.15283         1.51568
C         26.93660        21.11947         1.21852
C         28.57200        23.25715         2.67244
C         26.40688        22.01868         2.19845
C         28.12255        24.58801         2.11435
C         26.88537        25.23238         2.27915
C         28.09288        27.39468         2.02615
C         26.86534        26.67448         2.22014
C         28.12586        28.84237         2.10298
C         26.91292        29.55772         2.30294
C         28.18203        31.65786         2.11178
C         26.93420        30.99337         2.29954
C         28.22718        33.12867         1.99720
C         26.97283        33.92294         2.12119
C         28.16832        35.98416         1.23025
C         26.90526        35.20511         1.33867
C         28.16983        37.33231         1.00667
C         26.88176        38.02971         0.63857
C         28.17020        40.21751         0.72802
C         26.90112        39.51853         0.85955
C         28.17198        41.65953         0.76997
C         26.97358        42.37852         0.86232
C         28.26654        44.57930         1.01180
C         26.96241        43.81189         0.91149
C         28.18483        45.96101         0.39244
C         26.99090        46.68250         0.48927
C         28.05306        48.64335        -0.52826
C         26.89689        48.03103         0.02565
C         27.92399        49.93191        -1.31552
C         26.78595        50.82422        -0.89364
C         28.04284        52.91857        -1.54194
C         26.76783        52.13802        -1.27160
C         27.82215        54.02505        -2.54202
C         26.63471        54.68512        -2.54505
C         26.24424        55.75818        -3.52771
C         29.40050        12.37832        -0.18884
C         30.72279        14.50793         0.33199
C         29.66870        13.58383         0.48370
C         30.66783        15.89759         0.70044
C         29.34505        16.61651         1.05128
C         30.70046        18.84532         0.74810
C         29.39579        18.11933         0.83521
C         30.69354        20.21041         1.40017
C         29.40988        20.92585         1.68701
C         30.09272        23.15339         0.81578
C         29.33946        22.43084         1.69374
C         30.40159        24.56520         1.03956
C         29.26528        25.30185         1.62225
C         30.53789        27.40873         1.30133
C         29.26040        26.69461         1.65892
C         30.63714        28.72052         2.09007
C         29.36127        29.53243         1.97563
C         30.66070        31.67204         1.79667
C         29.39447        30.94668         1.95586
C         30.69595        33.02518         1.48864
C         29.40731        33.72556         1.29588
C         30.68648        35.91871         0.91716
C         29.40527        35.20167         1.04440
C         30.64212        37.36030         0.77044
C         29.41950        38.05637         0.80018
C         30.63349        40.22247         0.57085
C         29.38469        39.49784         0.67500
C         30.63972        41.62296         0.52945
C         29.43168        42.37623         0.65017
C         30.64317        44.47221         0.13886
C         29.45899        43.77771         0.57729
C         30.57922        45.85480        -0.23192
C         29.34871        46.58296        -0.13418
C         30.46876        48.57266        -1.12160
C         29.26849        47.93354        -0.59669
C         30.42877        49.92612        -1.52214
C         29.22690        50.68444        -1.50499
C         29.22912        52.03249        -1.78992
C         31.85477        16.61529         0.83472
C         33.11969        18.69679         1.31130
C         31.94130        18.04232         1.06115
C         33.28028        20.20982         1.43960
C         31.97363        20.91834         1.12420
C         33.08739        22.95667         0.18238
C         31.95752        22.04556         0.38612
C         32.90139        24.46824         0.32903
C         31.64411        25.14496         0.83407
C         33.04503        27.28779         1.24258
C         31.77843        26.50599         1.53686
C         33.05883        28.75349         1.42903
C         31.90589        29.44881         1.73480
C         33.20517        31.64802         1.47481
C         31.92376        30.91230         1.87707
C         33.12698        33.07305         1.14034
C         31.90923        33.76460         1.19370
C         33.13843        35.85970         0.41896
C         31.86346        35.18802         0.89005
C         33.12170        37.37275         0.53852
C         31.88846        38.08004         0.59722
C         33.10412        40.19435         0.23559
C         31.87867        39.49370         0.50778
C         33.11739        41.59688         0.09090
C         31.93922        42.38068         0.58433
C         33.04000        44.41760        -0.45581
C         31.85299        43.76995         0.01781
C         32.96649        45.77653        -0.83471
C         31.75457        46.49852        -0.74096
C         31.67504        47.85257        -1.16076
C         34.36909        20.75887         0.46114
C         35.45541        22.99614         0.90891
C         34.39352        22.29061         0.47891
C         35.40806        24.48481         1.15010
C         34.25553        25.22327         0.39824
C         35.51436        27.31535         1.14978
C         34.18904        26.61417         0.96409
C         35.39704        28.67991         0.52991
C         34.25124        29.47778         1.00530
C         35.47294        31.55003         0.35822
C         34.31947        30.85543         0.93269
C         35.45496        33.01016         0.35445
C         34.35571        33.72562         0.78040
C         35.67738        35.90849         0.70956
C         34.37001        35.20990         1.08219
C         35.63827        37.39278         0.40839
C         34.32671        38.07649         0.35972
C         35.53134        40.14583        -0.31286
C         34.32372        39.46611         0.10138
C         35.48413        41.53018        -0.55205
C         34.29814        42.27923        -0.32868
C         34.25044        43.67927        -0.56725
C         36.70495        25.18413         0.78046
C         37.93798        27.30701         0.41611
C         36.73660        26.54234         0.69894
C         37.92335        28.66210         0.17073
C         36.62678        29.37771         0.03894
C         37.82919        31.44913        -0.68723
C         36.60672        30.84877        -0.01935
C         37.85546        32.97372        -0.64183
C         36.63361        33.74011        -0.16859
C         37.95594        35.83810        -0.29814
C         36.79430        35.16315         0.13127
C         37.96144        37.25673        -0.43632
C         36.79997        38.02483        -0.25143
C         36.71993        39.39700        -0.54753
C         39.12732        29.45118         0.08453
C         40.33294        31.55898        -0.27818
C         39.11463        30.79199        -0.22088
C         40.35562        32.90908        -0.49165
C         39.14585        33.69057        -0.58803
C         39.15170        35.06883        -0.56018
O         19.52178        29.96344         3.88735
O         16.45567        39.70766         0.65912
O         21.39652        51.78201        -2.81381
O         25.08939        46.63515         2.14188
O         22.75986        53.83655        -0.21722
O         14.51256        24.15169        -2.57969
O         11.89469        34.51058         4.21396
O         32.87634        31.38289         2.88971
O         18.35958        44.34286        -1.17766
O         30.75693        22.47881        -0.20404
O         28.52132        23.04250         3.87404
O         17.15076        45.07114         2.06005
O         32.85014        23.80369        -0.98467
O         10.62091        30.06349        -0.44292
O         17.32071        42.33666         2.99310
O         16.18904        28.58493         3.59971
O         12.50450        30.75869         3.63070
O         22.45906         9.98741        -4.00624
O         24.83901        43.00317         2.72191
O         20.88853        12.37279        -0.90397
O         35.66627        28.73784        -0.89276
O         26.60106        20.29933        -1.05732
O         27.95103        33.93875         3.21345
O         19.91272        44.81679         2.72675
O         30.21433        20.32330         2.77377
O         36.03529        36.88811         1.74586
O         24.90178        55.36353        -4.02946
O         19.05215        35.70085         3.82218
O         17.10654        19.77041        -3.74868
O         26.21262        35.11286         0.03986
O         23.48279        26.86844         3.64354
O         25.41968         8.48876        -3.36761
O         18.97047        51.49802        -0.25375
O         29.19375        34.19719        -0.06532
O         18.52474        48.62521        -2.71000
O         19.99800        46.41743        -1.57837
O         36.90474        33.49706        -1.61973
O         22.17976        50.84797         0.76299
O         28.65492        13.94077         1.40954
O         23.43586        45.24278        -0.69133
O         24.44209        21.59376        -1.39483
O         21.54934        38.90669         0.02647
O         22.65556        44.69637         2.86552
O         18.76617        33.35399         1.06152
O         20.08586        22.72852         1.22992
O         15.76939        26.31324         2.53422
H         16.05605        26.75245         3.37201
O         22.49322        17.65422        -2.88083
H         22.25861        16.85094        -3.41816
O         25.02472        17.24593        -2.54826
H         24.23485        17.65296        -2.99333
O         19.76233        27.75704        -0.69867
H         19.84813        28.73387        -0.55638
O         21.11431         5.80271        -1.64734
H         21.66160         5.11175        -1.21650
O         25.62552        33.42747         4.05193
H         26.55658        33.43548         4.37971
O         15.59114        23.04391         0.70596
H         16.15591        23.42186         1.41443
O         34.09766        20.27845        -0.85411
H         33.13932        20.37912        -1.04245
O         15.68024        37.77208         4.35350
H         16.40163        37.26191         4.78056
O         28.46423        44.79909         2.45400
H         27.61931        45.13466         2.82565
O         26.19963        12.09181        -2.72008
H         26.30270        13.02582        -2.99721
O         29.23750        16.47371         2.50830
H         29.08688        15.51399         2.67513
O         33.26636        35.57357        -1.00596
H         32.42677        35.82268        -1.44700
O         27.52909        49.49510        -2.67097
H         28.22882        48.89115        -3.00069
O         30.84400        19.17276        -0.68893
H         30.58669        18.37821        -1.20486
O         30.49725        27.78384        -0.09224
H         30.45139        26.96804        -0.63362
O         32.21119        42.57469         2.03526
H         33.00563        43.14650         2.10628
O         27.77021        19.57085         2.81144
H         28.61353        19.19832         3.16532
O         23.16424        16.31880         0.51841
H         22.23131        16.07767         0.70019
O         26.85841        37.88554        -0.83042
H         26.70358        36.92857        -1.01551
O         11.30550        36.72855         0.53397
H         10.55910        36.29742         0.06825
O         20.45915        29.94801         0.76692
H         21.30890        30.29724         0.42181
O         24.60637        39.47495         2.95117
H         24.53892        40.39815         3.28320
O         23.09693        36.95588        -0.50644
H         22.65798        37.71916        -0.95231
O         25.37615        24.30418         3.94763
H         25.99285        23.59910         4.25059
O         34.72418        25.42742        -0.95336
H         34.23720        24.79791        -1.53745
O         16.65855        30.93865         4.52163
H         16.16364        30.11262         4.73462
O         21.35156        15.28307        -3.50396
H         20.56764        15.50781        -4.05251
O         24.26772        51.50371        -2.66611
H         25.11511        51.02848        -2.81812
O         24.56042        18.48626         0.90704
H         23.79310        17.88809         1.10536
O         17.43397        26.54062        -1.52253
H         18.27710        27.06367        -1.48723
O         16.30197        31.59494         0.95038
H         15.82530        32.26978         0.42403
O         37.71864        31.07905        -2.09022
H         37.07614        31.70646        -2.49449
O         24.32085        55.81190        -0.48264
H         23.96547        55.22559         0.22867
O         21.87318        18.40412         0.67035
H         21.76414        19.27389         1.11186
O         22.25391        42.21945         3.51552
H         22.70176        43.04775         3.82205
O         35.67278        27.51236         2.58428
H         35.51367        26.63117         3.00031
O         10.95345        43.72608        -0.90203
H         10.83599        44.12998        -0.01828
O         25.91073        50.70977         1.29634
H         25.19060        50.36512         1.86898
O         27.76247        16.89043        -1.74525
H         27.04483        17.18083        -2.35822
O         30.71983        28.41230         3.52087
H         30.97144        29.23558         3.99180
O         11.49539        38.52551         3.73024
H         12.07770        39.28075         3.98357
O         26.14344        57.34516        -1.57559
H         25.75644        56.79204        -0.85399
O         35.16114        24.67523         2.57731
H         35.73844        24.05848         3.07463
O         12.90197        40.91011         3.08871
H         12.11666        41.48857         2.97713
O         26.57303        21.79239         3.51805
H         27.12572        20.97146         3.62709
O         34.19376        35.30780         2.51001
H         34.77357        36.04296         2.82285
O         25.25415        41.76368        -0.69105
H         25.88447        41.23523        -1.22522
O         31.86128        26.12310         2.93212
H         31.66008        26.91865         3.48455
O         28.32195        53.58184        -0.25608
H         28.27577        52.89859         0.44692
O         22.13491        30.84212         4.62931
H         21.34221        30.33229         4.91098
O         25.08382        10.61629         0.42022
H         25.03151         9.69037         0.73529
O          7.27945        31.89616        -0.53557
H          8.10584        31.57031        -0.95341
O         33.72745        20.52313         2.77594
H         33.00553        20.28953         3.39717
O          9.22438        35.28372         4.50279
H         10.05593        34.99180         4.94124
H          5.00386        31.20003         1.26405
H          4.91507        33.40249         2.38425
H          7.62543        27.28809        -0.35696
H          6.30949        29.28795         0.36013
H          6.07471        35.69330         2.28094
H          7.36627        37.59163         1.49197
H         10.18029        23.34804        -1.77538
H          8.91298        25.33272        -1.09070
H          8.63504        39.65249         0.78234
H          9.99884        41.44606        -0.34849
H         12.76076        19.35236        -3.06318
H         11.52427        21.38250        -2.56672
H         12.28497        42.55915        -1.93745
H         12.50972        45.54673        -1.73361
H         15.24456        15.19737        -3.95966
H         14.03879        17.26898        -3.55640
H         13.70325        47.72495        -2.08510
H         14.80614        49.83733        -2.29712
H         17.71031        10.89052        -4.66351
H         16.46354        13.14164        -4.43581
H         15.93801        52.03056        -2.70393
H         17.20767        54.11664        -3.34842
H         19.77391         6.40634        -4.13776
H         18.88260         8.68910        -4.72355
H         18.38346        56.22115        -3.85001
H         19.61037        58.19040        -4.64139
H         22.95655         2.84709        -3.74614
H         20.92053         4.19937        -4.12143
H         22.98724        61.27734        -6.00890
H         20.83825        60.10869        -5.55118
H         24.93663         3.77737        -2.57826
H         26.17838         5.72820        -1.69150
H         26.34062        58.79470        -3.80245
H         25.13581        60.35362        -5.17305
H         27.65740         7.86514        -1.26087
H         28.89419         9.87349        -0.71363
H         28.63782        54.32230        -3.21790
H         26.98183        55.93230        -4.34375
H         30.23083        11.83365        -0.66643
H         31.62546        14.17102        -0.20393
H         31.37017        50.42874        -1.79223
H         30.19145        52.52685        -2.00048
H         32.80624        16.06096         0.77303
H         34.03675        18.10425         1.46267
H         33.86440        46.27897        -1.22269
H         32.58015        48.34595        -1.54495
H         35.37308        20.37508         0.76621
H         36.37600        22.46500         1.20521
H         36.38844        42.04971        -0.90144
H         35.15762        44.19230        -0.91794
H         37.59446        24.58191         0.53651
H         38.90348        26.77635         0.43274
H         38.87026        37.74430        -0.81933
H         37.60095        39.91275        -0.95793
H         40.08655        28.96178         0.31754
H         41.28102        31.02193        -0.12296
H         41.31666        33.44362        -0.50977
H         40.10965        35.60785        -0.61611
