         236
 CSIRO Nanostructure Databank - Neutral Graphene Oxide Data Set
C        -10.73219         0.43516         0.99661
C         -9.57884         1.22879         0.71320
C         -8.37145         0.55033         0.19819
C         -7.30393         1.34416        -0.41750
C         -6.24879         0.71155        -1.09313
C         -5.22609         1.53152        -1.57850
C         -3.39728         0.48090        -1.66546
C         -2.31321         1.33429        -1.25642
C         -1.21639         0.76093        -0.62515
C          0.01482         1.47861        -0.38087
C          1.09572         0.80877         0.20174
C          2.27752         1.62800         0.69640
C          3.60609         0.87809         0.74068
C          4.81834         1.53076         0.69255
C          6.09666         0.82608         0.54066
C          7.31813         1.48776         0.55971
C          8.60123         0.69668         0.65169
C          9.82525         1.44977         0.17361
C         11.00458         0.66320        -0.11633
C         -9.51128         2.60593         0.95269
C         -8.39928         3.38784         0.57044
C         -7.44043         2.85583        -0.47333
C         -6.08807         3.51883        -0.39949
C         -4.86913         2.72236        -0.74311
C         -3.68385         3.55543        -1.22269
C         -2.38463         2.80566        -1.48105
C         -1.08459         3.55590        -1.36514
C          0.08290         2.89737        -0.73962
C          1.22529         3.64014        -0.50996
C          2.48247         2.87310        -0.17691
C          3.58698         3.73238         0.39624
C          4.85484         3.01639         0.77949
C          6.15250         3.72220         0.60809
C          7.42548         2.95931         0.87764
C          8.64798         3.62566         0.26751
C          9.84036         2.81603         0.10449
C         -8.24317         4.71412         1.03761
C         -7.06305         5.44280         0.87811
C         -5.81577         4.70374         0.46316
C         -4.72085         5.56397        -0.16963
C         -3.66390         5.00055        -0.83675
C         -2.45448         5.79420        -1.25657
C         -1.12043         5.07396        -1.37903
C          0.11459         5.78843        -0.98422
C          1.27665         5.08094        -0.71254
C          2.55243         5.78927        -0.51629
C          3.65217         5.13719        -0.03441
C          4.91837         5.82934         0.31031
C          6.17884         5.04847         0.32880
C          7.39686         5.75107        -0.23844
C          8.65531         4.94614        -0.06012
C         -6.94009         6.78864         1.32786
C         -5.81381         7.54124         1.05468
C         -4.79538         7.01391         0.11266
C         -3.60647         7.87057        -0.19642
C         -2.41522         7.25314        -0.86801
C         -1.13289         7.98947        -0.73557
C          0.10324         7.27400        -1.09035
C          1.39926         8.03821        -1.00928
C          2.65943         7.24557        -0.84193
C          3.87882         8.01340        -0.45940
C          5.01444         7.29913         0.18894
C          6.33986         7.97980         0.15625
C          7.47592         7.22908         0.10886
C         -5.69433         8.92509         1.46084
C         -4.58057         9.67012         1.24733
C         -3.31708         9.06786         0.69369
C         -2.40093        10.05183        -0.07308
C         -1.10472         9.33137        -0.42071
C          0.14167        10.04145        -0.31526
C          1.36757         9.43651        -0.51723
C          2.60837        10.12101        -0.22292
C          3.82238         9.47646        -0.20506
C          5.08619        10.11284         0.10743
C          6.26639         9.42983         0.23612
C        -10.83017        -0.89583         0.66129
C         -9.76375        -1.62002         0.00799
C         -8.46826        -0.91480        -0.16681
C         -7.45746        -1.52925        -1.09306
C         -6.23335        -0.75408        -1.43615
C         -4.90342        -1.54527        -1.69513
C         -3.64884        -0.79869        -1.23061
C         -2.65151        -1.38618        -0.32586
C         -1.35595        -0.60910        -0.08908
C         -0.12976        -1.32132         0.32361
C          1.04183        -0.60781         0.46704
C          2.22511        -1.30563         1.11604
C          3.57133        -0.58310         0.94126
C          4.84181        -1.33032         0.56049
C          6.07059        -0.58871         0.26748
C          7.25022        -1.29538        -0.05706
C          8.50737        -0.68280         0.05121
C          9.69470        -1.41294        -0.24417
C         10.95287        -0.69147        -0.26332
C         -9.88104        -2.91983        -0.39207
C         -8.78699        -3.71129        -1.07209
C         -7.43613        -3.01274        -1.06597
C         -6.24791        -3.68856        -1.13354
C         -4.96913        -2.97257        -1.12134
C         -3.80666        -3.62518        -0.74747
C         -2.64645        -2.88881        -0.11042
C         -1.28254        -3.51722        -0.37733
C         -0.08365        -2.80740         0.16327
C          0.97690        -3.59373         0.94013
C          2.30312        -2.81414         0.86512
C          3.52801        -3.42880         0.65730
C          4.72164        -2.74855         0.27337
C          5.85767        -3.46551        -0.32770
C          7.17982        -2.69941        -0.51641
C          8.41880        -3.50387        -0.59144
C          9.64594        -2.78941        -0.52836
C         -8.70460        -5.11445        -0.51447
C         -7.53815        -5.80819        -0.47887
C         -6.27158        -5.15987        -0.92189
C         -4.99425        -5.84273        -0.57829
C         -3.74062        -5.05525        -0.54745
C         -2.54833        -5.75223        -0.41694
C         -1.25751        -5.02133        -0.54318
C          0.06121        -5.73804        -0.36416
C          1.09805        -5.06452         0.48350
C          1.89658        -5.94074         1.20307
C          3.93300        -4.83034         1.01062
C          4.68834        -5.64583         0.00140
C          5.93911        -4.92912        -0.31087
C          7.11856        -5.62305        -0.58354
C          8.34745        -4.89539        -0.72956
C         -7.47189        -7.20715        -0.07799
C         -6.29404        -7.84609         0.20626
C         -5.02160        -7.04415         0.33440
C         -3.74588        -7.84091         0.19399
C         -2.57786        -7.18649        -0.14910
C         -1.33247        -7.98055        -0.22001
C         -0.00763        -7.24970        -0.28557
C          1.17242        -8.00382         0.14682
C          2.22872        -7.30588         0.69313
C          3.54050        -7.91050         0.62153
C          4.68023        -7.14902         0.06558
C          5.98786        -7.80658        -0.13710
C          7.10560        -7.07331        -0.47764
C         -6.22767        -9.24299         0.57062
C         -5.03977        -9.88451         0.77079
C         -3.75562        -9.24503         0.55047
C         -2.57316        -9.95950         0.65793
C         -1.30175        -9.37398         0.31671
C         -0.11834       -10.06492         0.41141
C          1.19581        -9.49009        -0.10673
C          2.46046       -10.11223         0.42650
C          3.61065        -9.34383         0.53290
C          4.93787        -9.94867         0.47048
C          6.04408        -9.22999         0.13461
O         -4.74912         7.93504        -1.07059
O          4.25520        -5.03671         2.19227
O         -2.68314         6.82960        -2.25139
O         -5.02209        -6.49686         1.69201
H         -5.02393        -7.25095         2.31825
O          7.17441         5.73633        -1.69717
H          6.43290         6.34535        -1.90432
O          4.72760         6.71411         1.50401
O         -7.85914        -0.52056         1.09580
O         -0.31104        -2.93633        -1.29216
O         -0.83606         4.30019        -2.59446
O         -4.41253         2.07954         0.50996
H         -4.52954         2.76314         1.22691
O         -3.22166         3.28143        -2.56773
O          4.12066        -6.36257        -1.11407
O          8.80288         0.49123         2.09953
H          8.57026         1.34210         2.54295
O         -4.79930        -1.71988        -3.12087
H         -5.71430        -1.71668        -3.48550
O         -5.55528        -5.98784        -1.91350
O         -9.18844        -3.84246        -2.47422
H         -8.50473        -4.37683        -2.93126
O          1.89902         2.01230         2.03534
H          1.83605         1.18957         2.57061
O         -2.54633         8.53762         1.81450
H         -2.57619         9.18994         2.54505
O          1.94422        -1.14350         2.54766
H          2.76320        -1.41905         3.02117
O         -5.21541         4.26719         1.77564
H         -5.96283         4.00590         2.35709
O          2.97876         2.36620        -1.45505
H          2.73151         2.99637        -2.16463
O         -2.45241        -0.65906         0.92917
O          7.62668         3.02490         2.33844
H          7.44373         3.94454         2.62836
O          4.46782        -1.02405         1.99743
O          0.47461        -3.54888         2.29565
H          1.11438        -4.03096         2.86620
O         -2.85961        -3.14346         1.30801
H         -2.71210        -2.28658         1.77940
O         -8.03302         3.16713        -1.79729
H         -9.00722         3.08458        -1.72651
O         -4.36530         1.04650        -2.53763
O          6.26763        -2.88936        -1.63171
O         -0.61477        -7.83229        -1.49180
O          2.05408        -5.74576         2.55020
H          2.86475        -6.19005         2.88436
O         -7.27932        -0.99343        -2.45417
O         -0.37307        -5.32565        -1.68050
O         -3.05763        10.53387        -1.24310
H         -3.35082         9.76828        -1.78217
O          1.22613        -9.76747        -1.54398
H          0.54992        -9.17233        -1.95537
O          0.75712         7.80926        -2.30093
O          3.68415         7.58385        -1.85214
O          3.94760         3.55651         1.79806
H         11.87060        -1.25522        -0.48702
H         11.95936         1.19409        -0.25199
H         10.76594         3.33052        -0.20142
H          9.58215         5.38926        -0.45914
H          8.46253         7.71828         0.09429
H          7.19824         9.98916         0.40753
H          5.09003        11.20866         0.21093
H          2.55578        11.19201         0.02759
H          0.11024        11.09228         0.01148
H         -2.17186        10.93975         0.57096
H         -4.55276        10.72291         1.56713
H         -6.56506         9.38284         1.95593
H         -7.78005         7.24509         1.87513
H         -9.08432         5.18015         1.57717
H        -10.33237         3.08956         1.50601
H        -11.59652         0.93508         1.45880
H        -11.76499        -1.43704         0.86656
H        -10.83993        -3.44037        -0.24228
H         -9.64419        -5.60352        -0.21403
H         -8.41883        -7.76791        -0.02822
H         -7.17204        -9.79951         0.66992
H         -5.03742       -10.95003         1.04462
H         -2.60184       -11.01729         0.95975
H         -0.13552       -11.11219         0.75164
H          2.55287       -11.20773         0.36637
H          5.01423       -11.03703         0.61125
H          7.01655        -9.73561         0.03796
H          8.06335        -7.60190        -0.60281
H          9.28314        -5.46554        -0.82975
H         10.58680        -3.33284        -0.70346
