         630
 CSIRO Nanostructure Databank - Neutral Graphene Oxide Data Set
C         23.37258        27.55708         2.62203
C         23.30575        28.90716         2.49480
C         23.24084        31.91187         2.09166
C         23.20193        33.27728         1.86967
C         23.07546        36.15400         1.20273
C         23.01492        37.50074         0.95401
C         22.98470        40.40723         0.33646
C         22.99279        41.74421         0.03427
C         22.98033        44.57472        -0.77818
C         22.97626        45.91797        -1.04582
C         25.65379        24.62473         1.94806
C         24.56402        25.36114         2.34582
C         25.50757        27.41254         1.41998
C         24.50702        26.78510         2.15122
C         25.60533        28.87926         1.42894
C         24.47238        29.68930         2.05008
C         25.50144        31.82036         1.22875
C         24.38466        31.15329         1.75316
C         25.50094        33.23222         1.04547
C         24.32013        33.97273         1.34415
C         25.45178        36.02855         0.60132
C         24.28756        35.38824         1.06214
C         25.38067        37.45394         0.23015
C         24.17287        38.24651         0.56313
C         25.48828        40.39638         0.49547
C         24.18418        39.63288         0.40420
C         25.44299        41.80371        -0.05537
C         24.21172        42.47382        -0.21741
C         25.44154        44.54427        -0.79423
C         24.20590        43.85533        -0.60414
C         25.43951        45.94737        -1.11308
C         24.19937        46.64365        -1.18059
C         25.38536        48.75071        -1.35191
C         24.19401        48.04888        -1.34811
C         28.00563        23.08758         1.04884
C         27.92411        24.51365         0.89043
C         26.73938        25.21150         1.22484
C         27.82503        27.34727         0.26300
C         26.58217        26.61480         0.81574
C         27.87306        28.86861         0.07785
C         26.57260        29.57507         0.51875
C         27.92319        31.75137         0.46050
C         26.61965        31.05989         0.61610
C         27.91566        33.17598         0.40608
C         26.69153        33.90884         0.59445
C         27.91685        36.02304         0.16274
C         26.67971        35.31762         0.42953
C         27.94490        37.43263         0.02736
C         26.68033        38.17732        -0.07322
C         27.93001        40.29778        -0.01630
C         26.72215        39.64155         0.05366
C         27.93523        41.78041         0.04723
C         26.66063        42.49261        -0.21206
C         27.92641        44.53898        -0.84756
C         26.67689        43.85668        -0.58299
C         27.88660        45.87161        -1.34846
C         26.66590        46.65858        -1.31394
C         27.84474        48.89879        -1.11112
C         26.63542        48.08899        -1.33021
C         27.86976        50.05259        -0.27988
C         30.41678        23.06739         0.61708
C         29.17382        22.39799         0.88993
C         30.38783        24.49090         0.42436
C         29.12329        25.22376         0.48896
C         30.31168        27.40674         0.08735
C         29.08621        26.61229         0.31045
C         30.33810        28.82570         0.38269
C         29.07219        29.53169         0.76415
C         30.36841        31.71292         0.32159
C         29.11902        31.02926         0.47417
C         30.37134        33.13617         0.18094
C         29.14452        33.86895         0.23356
C         30.38378        35.99197        -0.00030
C         29.14829        35.29659         0.13596
C         30.39834        37.41488        -0.08964
C         29.16789        38.14850        -0.06431
C         30.40506        40.28339        -0.35518
C         29.17923        39.58180        -0.15025
C         30.43918        41.69875        -0.51335
C         29.23228        42.49865        -0.25196
C         30.40032        44.51891        -1.12724
C         29.17709        43.87881        -0.76282
C         30.36392        45.85590        -1.61606
C         29.09772        46.37414        -1.87920
C         30.33699        48.88425        -1.11251
C         29.07339        48.47174        -1.61261
C         30.32304        50.12295        -0.40607
C         29.07063        50.68521        -0.01661
C         32.87917        20.23169         0.56248
C         31.74172        20.92579         0.79251
C         32.86372        23.05443         0.28570
C         31.63967        22.35335         0.52316
C         32.85464        24.48216         0.24576
C         31.60887        25.17167         0.24288
C         32.89550        27.33410         0.21584
C         31.64023        26.62465         0.02348
C         32.90972        28.78044         0.43414
C         31.59067        29.54336         0.52635
C         32.83927        31.67063         0.11555
C         31.61148        31.00591         0.31260
C         32.83994        33.10529         0.01053
C         31.61127        33.83077         0.05175
C         32.84504        35.95959        -0.15242
C         31.61561        35.26010        -0.03662
C         32.85679        37.38531        -0.26911
C         31.63066        38.11049        -0.24162
C         32.85718        40.18482        -0.68274
C         31.64059        39.52920        -0.42447
C         32.83668        41.58217        -1.14776
C         31.61099        42.38470        -0.93834
C         32.85133        44.46572        -1.77124
C         31.62956        43.77099        -1.16148
C         32.87135        45.96135        -1.47751
C         31.60573        46.71241        -1.92188
C         32.76066        48.77499        -1.00500
C         31.55449        48.14567        -1.32591
C         32.77057        50.08561        -0.43760
C         31.57564        50.77753        -0.16101
C         32.74194        52.93282         0.01250
C         31.59718        52.20640         0.06509
C         35.42722        18.74015        -0.16146
C         35.36018        20.16493        -0.06646
C         34.03244        20.87540        -0.16805
C         35.31357        23.05177         0.12454
C         34.09490        22.35354         0.13812
C         35.31867        24.48777         0.12775
C         34.09169        25.19054         0.14336
C         35.33022        27.35487         0.03248
C         34.10194        26.63209         0.14902
C         35.30268        28.77414        -0.10696
C         34.13302        29.51105         0.08162
C         35.30095        31.65145        -0.23221
C         34.09553        30.94956        -0.01777
C         35.30900        33.09583        -0.22111
C         34.07067        33.81129        -0.10925
C         35.31080        35.94082        -0.24245
C         34.07762        35.23510        -0.17412
C         35.32390        37.36414        -0.34398
C         34.09058        38.08213        -0.40536
C         35.34594        40.19527        -0.70193
C         34.09741        39.49130        -0.62548
C         35.38682        41.60773        -0.90151
C         34.15494        42.30490        -1.31336
C         35.33702        44.45133        -1.31081
C         34.15638        43.77819        -1.38955
C         35.34118        45.92092        -1.66234
C         34.03805        46.63042        -1.35029
C         35.32165        48.80248        -0.99363
C         34.05267        48.15016        -1.50585
C         35.32769        50.09051        -0.49393
C         34.04771        50.75543        -0.14240
C         35.31987        53.00857        -0.33362
C         34.04716        52.26002         0.06375
C         35.32378        54.42205         0.18713
C         37.80903        18.88441        -0.84399
C         36.59940        18.08557        -0.43001
C         37.80253        20.20907        -0.12861
C         36.57751        20.89546         0.02382
C         37.76741        23.06996         0.21864
C         36.57135        22.34415         0.15952
C         37.79045        24.49770         0.11044
C         36.55667        25.21015         0.06973
C         37.80772        27.33470        -0.06770
C         36.56358        26.63233        -0.01426
C         37.82288        28.75850        -0.19023
C         36.54747        29.45815        -0.59108
C         37.76489        31.61282        -0.40051
C         36.55643        30.94354        -0.34391
C         37.77550        33.08025        -0.72614
C         36.51829        33.80039        -0.33005
C         37.78121        35.92498        -0.20727
C         36.54502        35.22121        -0.26707
C         37.79080        37.35638        -0.18882
C         36.55612        38.06779        -0.36239
C         37.80060        40.19638        -0.41594
C         36.56820        39.48783        -0.49226
C         37.81066        41.62162        -0.50805
C         36.57778        42.32759        -0.75625
C         37.78985        44.45642        -0.92077
C         36.59995        43.76901        -0.99027
C         37.85735        45.88826        -1.38900
C         36.56831        46.63674        -1.20412
C         37.78975        48.63563        -0.51187
C         36.62797        48.12988        -1.35438
C         37.76599        50.03319         0.03640
C         36.53842        50.80896        -0.17446
C         37.70636        52.84591         0.54008
C         36.56493        52.21457         0.04428
C         37.65596        54.25992         0.94587
C         36.38857        54.99247         0.76298
C         40.39126        16.16602        -1.54724
C         39.21714        16.82268        -1.33099
C         40.31223        18.82517        -0.45088
C         39.14785        18.17000        -0.81820
C         40.33773        20.19065         0.02554
C         39.04237        20.83653         0.27525
C         40.30774        23.07759         0.24827
C         39.03771        22.37986         0.45988
C         40.28615        24.48619         0.09941
C         39.03191        25.19609         0.08230
C         40.27552        27.33220        -0.02985
C         39.03580        26.61809        -0.00019
C         40.27208        28.75504        -0.03161
C         39.02177        29.46305        -0.13258
C         40.21464        31.62481        -0.15979
C         39.02728        30.91695        -0.26688
C         40.23404        33.06946        -0.21086
C         39.03457        33.79184        -0.33311
C         40.25103        35.88326         0.01805
C         39.02646        35.19596        -0.17650
C         40.19932        37.31057         0.49258
C         38.99283        38.07066        -0.00347
C         40.22714        40.21953         0.01716
C         39.01706        39.49019        -0.12502
C         40.25222        41.62060        -0.18571
C         39.03397        42.31892        -0.40658
C         40.34021        44.43225        -0.73685
C         39.02272        43.82206        -0.31020
C         40.34234        45.85518        -1.07326
C         39.09433        46.61772        -0.93694
C         40.32161        48.70080        -0.39763
C         39.10543        47.96722        -0.68880
C         40.25496        50.08813         0.03575
C         39.04588        50.72433         0.26904
C         40.23424        52.92603         0.55817
C         38.99111        52.10360         0.88225
C         40.21706        54.31514         0.62770
C         38.97885        55.04421         0.99428
C         40.10226        57.18229         0.51685
C         38.97627        56.51006         0.85364
C         42.95889        16.10789        -1.35454
C         41.67810        16.85442        -1.39308
C         42.82230        18.72055        -0.01011
C         41.62437        18.22581        -0.76498
C         42.82669        20.19086         0.45512
C         41.51847        20.90374         0.18809
C         42.75458        23.05752         0.03335
C         41.52758        22.35236         0.21529
C         42.75331        24.47992        -0.02790
C         41.51768        25.19559         0.01081
C         42.74089        27.34542        -0.08338
C         41.51457        26.62670        -0.03399
C         42.72699        28.77421        -0.05463
C         41.50012        29.46148         0.00417
C         42.73679        31.66233        -0.08688
C         41.47216        30.93640         0.30704
C         42.71343        33.04214        -0.19558
C         41.47170        33.77073        -0.13699
C         42.73709        35.91799         0.02752
C         41.47346        35.19155        -0.04862
C         42.69610        37.36364         0.21685
C         41.49898        38.04543         0.31740
C         42.73132        40.23338         0.26378
C         41.44569        39.52960         0.58208
C         42.72708        41.63556         0.05766
C         41.51321        42.34617        -0.17052
C         42.82562        44.44954        -0.53325
C         41.54150        43.74615        -0.50398
C         42.86474        45.88307        -0.59811
C         41.64795        46.64318        -0.89176
C         42.77625        48.73551        -0.13724
C         41.56291        48.05463        -0.47750
C         42.74298        50.15277         0.08267
C         41.50189        50.82433         0.17654
C         42.69131        52.98196         0.24126
C         41.47456        52.24230         0.32976
C         42.65997        54.41009         0.22762
C         41.41069        55.07806         0.37968
C         42.54848        57.22115         0.10342
C         41.36239        56.49806         0.32270
C         44.09308        16.67153        -0.90339
C         45.37679        18.73100        -0.05117
C         44.10752        17.97266        -0.17660
C         45.36459        20.23523         0.19809
C         44.04787        20.94368        -0.01472
C         45.21466        23.09604        -0.34060
C         44.00906        22.33454        -0.11818
C         45.22207        24.49831        -0.29356
C         43.98356        25.21359        -0.14089
C         45.21906        27.35846        -0.20676
C         43.98279        26.63067        -0.14564
C         45.21478        28.78313        -0.15583
C         43.97884        29.50823        -0.09352
C         45.21820        31.64809        -0.16967
C         43.97334        30.92052        -0.13630
C         45.22124        33.06284        -0.21948
C         43.95687        33.80538        -0.57251
C         45.20288        35.95455        -0.05616
C         43.94496        35.25581        -0.13586
C         45.18359        37.39380         0.17795
C         43.95885        38.08002         0.27686
C         45.17615        40.23295         0.47516
C         43.94258        39.51588         0.34370
C         45.17718        41.64204         0.35949
C         43.98376        42.33675         0.04708
C         45.31629        44.39181        -0.37255
C         44.00859        43.72991        -0.25766
C         45.32253        45.96002        -0.46303
C         44.03717        46.62871        -0.37007
C         45.24633        48.75195         0.10665
C         44.01457        48.04200        -0.13343
C         45.22724        50.19271         0.19767
C         43.97273        50.88300         0.15495
C         45.16807        53.04866         0.08967
C         43.94583        52.30223         0.16458
C         45.13867        54.47045         0.01779
C         43.86391        55.16488         0.06869
C         43.77280        56.57057        -0.00773
C         47.82676        18.86392        -0.25695
C         46.59892        18.12581        -0.16046
C         47.82283        20.22093        -0.51601
C         46.50354        20.89192        -0.55731
C         47.72178        23.12724        -0.76873
C         46.45162        22.38654        -0.70797
C         47.69460        24.53256        -0.64405
C         46.45675        25.23197        -0.43511
C         47.69708        27.37407        -0.39257
C         46.45493        26.64746        -0.34541
C         47.68937        28.79269        -0.24405
C         46.45466        29.49859        -0.15800
C         47.67916        31.65376        -0.09425
C         46.45048        30.92978        -0.11298
C         47.65980        33.06494        -0.11291
C         46.43582        33.78071        -0.16889
C         47.67381        35.93671         0.00012
C         46.41360        35.24259        -0.14357
C         47.68489        37.44405        -0.09674
C         46.40772        38.12231         0.34603
C         47.64788        40.20838         0.97445
C         46.39397        39.48962         0.61852
C         47.65221        41.70752         1.08778
C         46.40080        42.41694         0.67966
C         47.73203        44.50477         0.25041
C         46.50714        43.79764         0.20013
C         47.74318        45.93651         0.07081
C         46.53689        46.65597        -0.06519
C         47.72716        48.74264         0.48984
C         46.47159        48.05100         0.16979
C         47.70913        50.27464         0.50924
C         46.42712        50.93941         0.24998
C         47.65488        53.08204         0.04162
C         46.42135        52.35725         0.10997
C         47.58456        54.48726        -0.05578
C         46.36926        55.15973        -0.06483
C         50.23486        20.34971        -1.08412
C         48.99799        20.99376        -0.85562
C         50.15632        23.17560        -1.16261
C         48.94665        22.42569        -0.93801
C         50.12275        24.58543        -1.08564
C         48.92098        25.26667        -0.76141
C         50.17446        27.40241        -0.59727
C         48.92292        26.68261        -0.60366
C         50.14920        28.78319        -0.27093
C         48.93753        29.50241        -0.16322
C         50.14747        31.64570         0.09328
C         48.93614        30.93612        -0.04930
C         50.18358        33.06711         0.15446
C         48.95229        33.80531        -0.32040
C         50.07731        35.93528         0.55015
C         48.86023        35.25310         0.06830
C         50.14585        37.40897         0.46655
C         48.96337        38.08963         0.36645
C         50.16604        40.30866         0.43512
C         48.94394        39.51877         0.73661
C         50.21410        41.72454         0.73011
C         48.98985        42.46961         1.20492
C         50.19006        44.53574         0.43758
C         48.95840        43.85256         0.57740
C         50.20037        45.92451         0.15467
C         48.98808        46.64840         0.12795
C         50.22190        48.80644         0.21386
C         48.99858        48.06880         0.21643
C         50.20200        50.25693         0.22011
C         48.97416        50.97857         0.24501
C         50.17203        53.05562        -0.11291
C         48.93345        52.37815         0.04941
C         51.38149        21.06000        -1.38119
C         52.60649        23.19143        -1.66733
C         51.39470        22.47963        -1.41891
C         52.61446        24.66372        -1.71977
C         51.32068        25.38855        -1.40688
C         52.65706        27.49655        -0.96160
C         51.40268        26.77573        -0.93757
C         52.67772        28.79450        -0.48645
C         51.43763        29.42430         0.00004
C         52.67345        31.67101         0.18535
C         51.40967        30.92190         0.26322
C         52.63238        33.05621         0.50437
C         51.36713        33.73312         0.49360
C         52.58798        35.93318         1.09131
C         51.31531        35.17048         0.85243
C         52.61609        37.39651         0.85284
C         51.43245        38.07425         0.60080
C         52.71442        40.25693         0.62729
C         51.48114        39.52056         0.34249
C         52.67722        41.64666         0.72118
C         51.44191        42.39798         0.69264
C         52.66501        44.56678         0.56439
C         51.45088        43.84070         0.62095
C         52.71039        45.93725         0.24938
C         51.46566        46.63973        -0.20976
C         52.68893        48.81653         0.07757
C         51.45176        48.11806         0.09631
C         52.68548        50.24458         0.06350
C         51.43167        50.96448         0.07797
C         51.37320        52.37631        -0.07450
C         54.93701        23.23714        -2.33352
C         53.81918        22.52071        -1.96423
C         54.94542        24.65810        -2.21718
C         53.90303        25.39241        -1.69041
C         55.23874        27.54262        -0.95805
C         53.94785        26.92481        -1.60262
C         55.18209        28.84944        -0.48186
C         53.91085        29.64884        -0.69413
C         55.09232        31.65593         0.31384
C         53.87858        30.99171         0.00445
C         55.07471        33.05176         0.65233
C         53.86264        33.74419         0.70793
C         55.13994        35.93766         0.90722
C         53.87919        35.18279         1.04947
C         55.12837        37.35133         0.94062
C         53.88975        38.08891         0.87722
C         55.18358        40.20132         0.91115
C         53.92654        39.50221         0.81958
C         55.20064        41.63673         0.88616
C         53.93069        42.35961         1.01345
C         55.19784        44.53465         0.53706
C         53.92974        43.88413         0.90908
C         55.17503        45.94481         0.26005
C         53.94132        46.65095         0.20007
C         55.16319        48.79542        -0.00885
C         53.93693        48.08964         0.05840
C         55.12600        50.21886        -0.03954
C         53.93696        50.91504         0.00350
C         58.10001        25.02445        -1.47645
C         56.89869        25.72876        -1.64175
C         57.60989        27.44041        -0.11735
C         56.53402        26.86982        -0.88788
C         57.52787        28.78040         0.35489
C         56.32771        29.52439         0.09825
C         57.41478        31.54850         1.20357
C         56.29349        30.90068         0.42177
C         57.51273        33.04573         1.00118
C         56.33038        33.76731         0.85744
C         57.59262        35.90246         1.03853
C         56.34645        35.20648         0.90057
C         57.59487        37.31511         1.14470
C         56.38453        38.05550         1.03808
C         57.64683        40.26771         1.35367
C         56.38661        39.48310         1.04383
C         57.65024        41.65113         0.73971
C         56.40918        42.35844         0.71258
C         57.59080        44.45075        -0.03049
C         56.36797        43.77863         0.44337
C         57.62813        45.92253        -0.01262
C         56.41153        46.65148         0.07279
C         57.67275        48.72151        -0.19332
C         56.42090        48.07156        -0.04154
C         59.04379        25.47820        -0.56753
C         59.91143        27.31176         0.79912
C         58.83754        26.72057         0.06092
C         59.86133        28.62671         1.16449
C         58.69616        29.41803         0.90244
C         59.91897        31.54968         1.27072
C         58.72047        30.82075         1.10461
C         59.95203        32.93225         1.29561
C         58.76908        33.72626         1.13376
C         60.05855        35.88039         1.11952
C         58.81085        35.14388         1.10276
C         60.09973        37.22426         1.25955
C         58.86526        38.02558         1.57094
C         60.03416        40.09822         0.66846
C         58.90029        39.46842         1.10784
C         60.04892        41.48912         0.36840
C         58.88185        42.25918         0.40021
C         60.13227        44.49322         0.04875
C         58.90531        43.68259        -0.04744
C         60.09924        45.84456        -0.07350
C         58.85913        46.59165        -0.14328
C         58.85768        48.00755        -0.22559
O         32.34329        29.13960         1.76957
O         26.03597        30.35394        -0.58303
O         51.75094        25.23113        -2.82354
O         38.99529        21.47535         1.59889
O         47.71406        49.49326         1.75357
O         41.13020        46.30278        -2.22496
O         37.48962        48.83166         0.89111
O         53.22477        35.50565         2.34254
O         30.95503        27.06578        -1.20894
O         33.46885        41.70218        -2.46872
O         34.15924        51.36473         1.20058
O         46.20204        21.45480        -1.85819
O         31.81468        46.83129        -3.31861
O         41.82616        18.08635        -2.20716
O         46.74524        42.19632         2.13208
O         53.89516        43.22687         2.21204
O         28.72455        42.34205         1.14549
O         50.75288        39.94091        -0.86166
O         26.80969        26.79307        -0.63291
O         50.35479        35.45374         1.93807
O         45.50145        45.10395        -1.62900
O         48.40705        39.63687         2.10560
O         51.47566        29.96066         1.38312
O         25.80480        37.70004        -1.16750
O         29.03413        47.53757        -2.65100
O         38.33157        54.55194         2.22456
O         25.69403        29.38547         2.81176
O         43.26443        17.83451         1.06911
O         56.10095        25.27902        -2.68792
O         58.14089        43.88119        -1.28306
O         39.98911        37.19852         1.95460
H         40.71195        36.64061         2.31274
O         33.68913        20.78786        -1.60897
H         32.83722        21.26043        -1.72973
O         53.87907        30.02088        -2.11635
H         53.95875        29.18191        -2.64337
O         42.93974        20.17462         1.92221
H         42.98402        19.22129         2.18709
O         38.90766        44.12378         1.14127
H         39.55012        43.55080         1.61310
O         28.07484        29.09305        -1.32233
H         27.35092        28.63867        -1.80451
O         58.79761        38.08926         3.05366
H         58.65990        37.17304         3.37778
O         47.67880        37.70552        -1.55773
H         48.49090        37.30648        -1.93788
O         57.00773        31.38319         2.62507
H         56.14050        31.83158         2.73189
O         53.92974        27.40321        -2.98488
H         53.19175        26.93044        -3.43442
O         36.49725        29.33206        -2.06661
H         37.32549        29.72264        -2.41991
O         38.04566        45.82377        -2.87013
H         38.07770        46.76374        -3.17746
O         35.27148        53.07703        -1.78881
H         36.04792        53.58610        -2.10123
O         37.59773        19.17785        -2.28251
H         36.70993        19.59005        -2.36523
O         49.20827        42.70884         2.62660
H         48.31590        42.79041         3.03804
O         57.59558        40.51624         2.81167
H         57.90418        39.68389         3.24996
O         38.99054        51.90613         2.33146
H         38.82264        52.79267         2.73582
O         51.52440        46.57245        -1.69970
H         50.69779        46.97703        -2.04060
O         32.68208        44.33832        -3.20173
H         32.34393        45.22568        -3.53869
O         43.95194        33.86772        -2.05146
H         43.89641        32.94569        -2.38188
O         34.06230        48.36716        -2.95498
H         33.28272        47.82994        -3.31137
O         36.91715        48.43522        -2.76426
H         36.05436        48.29079        -3.23654
O         41.29534        39.68532         2.04827
H         42.05348        39.22897         2.47142
O         35.41326        45.99754        -3.13342
H         36.29156        45.61530        -3.38853
O         41.41727        31.02160         1.78436
H         42.21852        30.57315         2.13006
O         45.68157        20.43825         1.61665
H         44.82663        20.35893         2.10933
O         49.13935        33.84373        -1.79850
H         48.27236        34.07632        -2.19653
O         37.77670        33.11780        -2.21548
H         36.91552        32.75211        -2.51310
O         25.68037        40.55395         1.95582
H         26.42552        41.18021         2.09075
O         28.88266        29.35779         2.20015
H         29.70120        29.65201         2.65442
H         22.50996        27.00294         3.02098
H         22.37349        29.42991         2.75137
H         22.35971        31.41703         2.52226
H         22.28483        33.82304         2.12715
H         22.16066        35.64620         1.53552
H         22.06638        38.02824         1.12523
H         22.01500        39.89936         0.43751
H         22.02841        42.26154        -0.05176
H         22.02037        44.05253        -0.67459
H         22.02476        46.46020        -1.14478
H         25.69166        23.55713         2.20515
H         23.74640        24.87341         2.89542
H         25.36776        49.84878        -1.39577
H         23.23402        48.58128        -1.40801
H         27.08961        22.52554         1.27661
H         26.93409        50.45242         0.13566
H         29.16097        21.30495         0.99478
H         29.06106        51.60496         0.58364
H         32.92121        19.16020         0.80614
H         30.88449        20.40912         1.24764
H         32.69042        54.02973        -0.02479
H         30.63642        52.73898         0.09521
H         34.50592        18.15393        -0.02705
H         34.40632        55.01360         0.05544
H         36.60403        16.99045        -0.52667
H         36.32369        56.02092         1.14522
H         40.39043        15.10601        -1.84133
H         38.27247        16.29469        -1.52469
H         40.08743        58.27907         0.43517
H         38.05145        57.06100         1.07131
H         42.98053        15.10180        -1.80068
H         42.50579        58.31829         0.04553
H         45.03863        16.11426        -0.97434
H         44.67749        57.17561        -0.15358
H         48.76648        18.29526        -0.23819
H         46.66918        17.02953        -0.22263
H         48.50629        55.08157        -0.11224
H         46.38261        56.25607        -0.12741
H         50.29203        19.25360        -1.04581
H         50.18945        54.14311        -0.26418
H         52.30277        20.49509        -1.57068
H         52.30062        52.95207        -0.19451
H         55.84503        22.72993        -2.68301
H         53.86019        21.42466        -1.99157
H         56.06399        50.78833        -0.08109
H         53.97245        52.01261        -0.00438
H         58.28037        24.12957        -2.08568
H         57.71668        49.81505        -0.28483
H         59.98716        24.93629        -0.41409
H         60.80938        26.70911         0.99740
H         60.71741        29.07806         1.68304
H         60.87612        31.01098         1.32016
H         60.92516        33.42785         1.40959
H         61.00192        35.33182         0.98717
H         61.07657        37.72683         1.29239
H         60.97334        39.54203         0.53912
H         60.99856        41.94312         0.05465
H         61.09112        43.98822         0.23598
H         61.03774        46.41765        -0.03360
H         59.81455        48.53946        -0.32777
