         252
 CSIRO Nanostructure Databank - Neutral Graphene Oxide Data Set
C         30.50397        31.77296         1.12930
C         30.46474        33.01381         0.99751
C         30.56605        36.21759         1.38294
C         30.40037        37.37490         0.93939
C         30.36087        41.75202         1.62217
C         31.28350        41.88018         0.75846
C         32.92783        28.87241         1.29102
C         31.85907        29.51286         1.35650
C         32.86074        31.64656         1.13635
C         31.64093        30.91150         1.17025
C         32.88789        33.08266         1.02365
C         31.63936        33.85920         1.47822
C         32.79847        35.98241         0.75372
C         31.65210        35.31186         1.12150
C         32.85252        37.45319         0.62161
C         31.52092        38.27588         0.70500
C         32.79212        40.22707        -0.22308
C         31.54726        39.38225        -0.28228
C         32.59895        41.67540         0.00989
C         31.39397        42.45156        -0.66921
C         32.69745        44.41327        -0.17538
C         31.68847        43.87840        -0.67062
C         35.79785        27.35679         0.99856
C         35.55147        28.74079         1.07959
C         34.27756        29.42077         1.38143
C         35.31614        31.63618         0.53510
C         34.17193        30.95032         1.21745
C         35.28869        33.10811         0.43173
C         34.05295        33.77640         0.65206
C         35.25914        35.97303         0.24648
C         33.95557        35.20823         0.15155
C         35.28441        37.37947         0.15529
C         33.99100        38.06918        -0.20850
C         35.24495        40.30408         0.19610
C         33.99642        39.58144        -0.05996
C         35.18183        41.67147         0.39705
C         33.85287        42.41661         0.57597
C         35.15288        44.40185        -0.44292
C         33.99636        43.85612         0.00442
C         35.39166        45.72041        -0.90939
C         38.06155        26.82041         0.62030
C         36.66636        26.56749         0.52517
C         38.04178        28.97219         0.97578
C         36.73257        29.51722         0.93307
C         37.84972        31.68565         0.11313
C         36.61822        30.90688         0.40041
C         37.76134        33.12399        -0.11500
C         36.48781        33.81437         0.13898
C         37.70063        36.02313         0.07435
C         36.45958        35.22838         0.18656
C         37.64883        37.29131         0.92866
C         36.47266        38.14310         0.40918
C         37.66733        40.24571         1.01526
C         36.48096        39.53650         0.37317
C         37.74222        41.76724         0.73648
C         36.40964        42.54299         0.62383
C         37.72769        44.43769        -0.64210
C         36.45874        43.58463        -0.54806
C         37.72806        45.76966        -1.11676
C         36.40605        46.34217        -1.27315
C         40.37973        24.91957        -1.52334
C         39.34265        25.45765        -1.10030
C         40.30447        27.46063        -0.27380
C         39.14225        26.58702        -0.23136
C         40.32285        28.83875         0.04992
C         39.16478        29.60172         0.40026
C         40.25340        31.68164        -0.47514
C         39.05832        31.01009         0.06372
C         40.14956        33.13692        -0.82180
C         38.89540        33.84665        -0.49393
C         40.26236        35.92564         0.01238
C         38.94489        35.33741        -0.38692
C         40.22953        37.03589         0.82879
C         39.03015        37.95590         0.99488
C         40.21871        40.17266         0.14429
C         39.04504        39.47314         0.81526
C         40.24491        41.66921         0.08008
C         39.00351        42.47438         0.34169
C         40.18010        44.38790        -0.77443
C         38.98725        43.80640        -0.36403
C         40.20840        45.68182        -1.47998
C         38.92910        46.44711        -1.46526
C         40.24565        48.42725        -2.04152
C         39.17758        47.74816        -1.86109
C         43.01391        24.99016        -1.35919
C         41.68860        25.56398        -1.59315
C         42.79669        27.44507        -0.07841
C         41.59279        26.93394        -0.84483
C         42.83595        28.93787         0.27301
C         41.59276        29.59531        -0.34731
C         42.82006        31.73555        -0.64353
C         41.57923        31.10321        -0.02119
C         42.69272        33.06787        -1.39685
C         41.43210        33.89728        -1.04884
C         42.81045        36.03766        -0.70715
C         41.48051        35.34146        -0.66077
C         42.83468        37.49208        -0.61714
C         41.65982        38.29349        -0.79752
C         42.66976        39.87069         0.69946
C         41.51985        39.42738         0.03339
C         42.65872        42.04900         0.78463
C         41.50347        42.46802         0.16138
C         42.80076        44.56209        -0.42644
C         41.46137        43.85842        -0.26422
C         42.87130        45.76325        -1.31052
C         41.56047        46.44129        -1.69722
C         42.85263        48.46363        -1.79054
C         41.52894        47.94441        -1.86442
C         44.03982        25.54319        -0.93053
C         45.29821        27.49653         0.43668
C         44.08779        26.68649        -0.00035
C         45.30454        28.92583        -0.20835
C         44.10651        29.62619        -0.22917
C         45.23772        31.65850        -1.21830
C         43.99535        31.01644        -0.68480
C         45.29746        33.16682        -1.24009
C         43.99329        33.91004        -1.27474
C         45.31782        36.06985        -0.92710
C         43.97872        35.33585        -0.84701
C         45.28627        37.42961        -0.25961
C         44.02302        38.13466        -0.19482
C         45.16979        40.23060         0.68870
C         43.95764        39.42777         0.37525
C         45.19570        41.77127         0.77884
C         43.96877        42.58723         0.51959
C         45.32465        44.50932        -0.22922
C         44.05442        43.82045        -0.12074
C         45.33527        45.88152        -0.56683
C         44.20944        46.51082        -1.27039
C         43.91491        47.94059        -1.39562
C         47.59962        27.49653        -0.24038
C         46.61768        26.83781         0.11199
C         47.78275        28.86309        -0.62555
C         46.55162        29.53338        -0.62546
C         47.84263        31.74353        -1.18036
C         46.54031        30.92031        -1.15369
C         47.66301        33.07841        -0.47247
C         46.51365        33.81952        -0.65639
C         47.64461        35.89171         0.04385
C         46.48506        35.24237        -0.40996
C         47.76760        37.40154        -0.02260
C         46.43159        38.07040         0.10765
C         47.75370        40.23232         0.65444
C         46.45597        39.54141         0.33298
C         47.73295        41.71721         0.86951
C         46.50845        42.45434         0.55078
C         47.88341        44.45012        -0.01447
C         46.54145        43.77989         0.13347
C         47.71243        45.90381        -0.12783
C         46.62233        46.45381        -0.34797
C         50.31323        28.99607        -0.55887
C         49.03334        29.55361        -0.72961
C         50.28128        31.68795        -0.48170
C         49.08657        30.98572        -0.73093
C         50.20032        33.21986        -0.40143
C         48.85628        33.64858         0.24626
C         49.88708        35.76780         1.05332
C         48.79781        35.15095         0.38430
C         49.68855        37.08584         1.54229
C         48.78120        38.00674         0.94330
C         50.04369        40.13443         1.84651
C         48.89881        39.38822         1.10314
C         50.19828        41.54005         1.21626
C         48.94976        42.34593         0.99461
C         50.33090        44.40322         1.00065
C         49.10665        43.74149         0.49506
C         51.41087        29.60107        -0.40401
C         52.66373        31.84022         0.01673
C         51.54082        30.99440        -0.29683
C         52.47085        33.03684         0.33643
C         51.34496        33.88001         0.41883
C         52.19283        35.87137         1.70371
C         51.17051        35.05370         1.11620
C         52.46324        37.04955         1.98494
C         51.55949        38.13022         2.26738
C         52.51959        40.37560         1.79016
C         51.45658        39.42210         1.85123
C         52.61521        41.60437         1.93741
C         51.47573        42.51909         2.23126
C         51.25186        43.77545         1.54473
O         50.32121        37.55401         2.70281
O         42.55353        40.92277         1.60739
O         35.66229        30.97415        -0.73528
O         48.81950        43.83530        -0.92664
O         45.19692        40.92089         1.97326
O         30.68884        39.44048        -1.16094
O         41.16269        34.93494        -2.06520
O         44.83031        33.75949        -2.49126
O         40.06094        32.07672        -1.85836
O         41.71380        26.80747        -2.29659
O         43.10305        26.57408         1.06576
O         45.79783        31.02775        -2.41912
O         48.25633        37.71412        -1.41258
O         39.96970        40.85181        -1.12726
O         32.49984        38.27651         1.75775
O         43.79768        45.69956        -2.41849
O         39.33302        38.85284         2.10946
O         38.31619        27.77153         1.65743
O         38.14328        36.15649        -1.32196
O         47.27048        40.10597        -0.75229
O         40.91139        45.69941        -2.76885
O         34.44678        30.33833         2.51217
O         41.99471        44.80471         0.77177
O         38.58870        42.43949         1.74778
O         33.73411        37.76377        -1.61588
H         32.98119        38.30757        -1.93391
O         41.76366        29.47673        -1.76918
H         41.18077        30.12242        -2.22580
O         40.69079        37.98521        -1.67414
H         40.87418        37.14123        -2.14031
O         41.59223        31.37424         1.39788
H         42.11140        30.66095         1.85001
O         45.21541        27.71160         1.84631
H         45.08221        26.84282         2.28335
O         42.54711        32.68041        -2.77189
H         42.15068        33.43839        -3.25466
O         31.63547        33.81064         2.90713
H         30.91947        34.39282         3.23933
O         49.57541        37.13436        -1.52677
H         49.45621        36.43418        -2.21475
O         48.11901        32.09097        -2.56880
H         47.27559        31.94192        -3.06962
O         37.35192        40.16210         2.42197
H         37.96770        40.75976         2.90155
O         49.64743        40.28168         3.22394
H         49.55322        39.37707         3.59973
O         45.58654        36.34385        -2.32975
H         45.46255        35.48843        -2.81107
O         30.63776        41.99566        -1.68557
H         30.43486        41.02784        -1.61734
O         50.27370        33.75238        -1.72996
H         49.66139        33.22798        -2.30328
O         37.30230        36.87391         2.26409
H         37.28430        37.68221         2.82346
O         48.88123        33.07420         1.59150
H         48.09790        33.40134         2.08106
O         41.27675        37.32986         1.63658
H         41.00074        38.09845         2.19817
O         33.64381        35.05152        -1.26263
H         33.74592        35.93662        -1.69553
O         50.80796        41.35798        -0.03314
H         50.70426        42.16534        -0.57987
O         51.15745        42.57400         3.56312
H         51.06175        41.66557         3.92297
O         42.78625        29.05973         1.70783
H         43.54794        28.53494         2.06805
O         33.63352        42.54804         1.98512
H         34.45344        42.92303         2.38492
O         36.40494        42.79507        -1.75441
H         36.49382        43.39201        -2.52736
O         36.21546        43.28835         1.84009
H         37.10442        43.40245         2.25673
