         621
 CSIRO Nanostructure Databank - Neutral Graphene Oxide Data Set
C          5.74693        31.89364        -0.60770
C          5.72573        33.26055        -0.56112
C          8.28584        27.63696        -0.42428
C          8.23116        29.03182        -0.62104
C          7.01593        29.75861        -0.64505
C          8.18850        31.91815        -0.88677
C          6.98371        31.16707        -0.73987
C          8.19021        33.30813        -0.72737
C          6.94543        34.02602        -0.57450
C          8.16991        36.15496        -0.36991
C          6.94924        35.41566        -0.46027
C          8.19988        37.54868        -0.24307
C         10.85599        23.44316         0.07889
C         10.77551        24.79492        -0.24245
C          9.55276        25.53114        -0.18819
C         10.80115        27.69449        -0.31930
C          9.50557        26.91409        -0.37555
C         10.66411        29.09184        -0.85701
C          9.47730        29.75258        -0.86495
C         10.70359        31.94477        -0.88072
C          9.44962        31.20567        -1.30316
C         10.67864        33.32772        -0.63583
C          9.42991        34.03961        -0.62200
C         10.63759        36.11054        -0.07965
C          9.41653        35.42472        -0.38503
C         10.64343        37.51388         0.12135
C          9.42658        38.25880        -0.05804
C         10.70244        40.36811         0.07685
C          9.47372        39.66472        -0.06685
C         10.77393        41.76756        -0.08199
C         13.39059        19.25531         0.62700
C         13.39214        20.59978         0.38332
C         12.16738        21.36998         0.43546
C         13.34321        23.45082        -0.18846
C         12.08661        22.70370         0.08055
C         13.27949        24.75508        -0.89609
C         11.95823        25.49045        -0.81924
C         13.19574        27.60339        -1.12239
C         12.01675        26.95612        -0.84676
C         13.18847        29.07557        -1.31741
C         11.90309        29.81676        -1.21847
C         13.15800        31.89256        -0.63034
C         11.93579        31.25784        -0.90205
C         13.16301        33.28871        -0.30105
C         11.89932        34.01580        -0.31627
C         13.03095        35.97131         0.72460
C         11.85067        35.37340         0.00385
C         13.05851        37.48770         0.71873
C         11.87262        38.20702         0.42546
C         13.13458        40.32050         0.56276
C         11.89944        39.62845         0.38215
C         13.18864        41.71669         0.28223
C         12.01158        42.45674        -0.01682
C         13.25099        44.62283        -0.01304
C         12.07174        43.88391        -0.16606
C         13.29915        46.03188        -0.06241
C         16.23098        15.28927         1.83586
C         16.01558        16.51264         1.12088
C         14.79571        17.15499         1.07761
C         15.70601        18.98406        -0.47288
C         14.46264        18.30518         0.14699
C         15.82252        20.48686        -0.50820
C         14.68320        21.27858         0.06106
C         15.82143        23.38606        -0.85746
C         14.66927        22.74918        -0.19500
C         15.78550        24.79659        -1.07993
C         14.53431        25.50352        -1.04617
C         15.67387        27.63565        -1.40821
C         14.48099        26.91086        -1.23905
C         15.67646        29.10065        -1.42468
C         14.43393        29.82951        -1.14026
C         15.63228        31.86283        -0.45191
C         14.41995        31.18280        -0.75664
C         15.62469        33.22047         0.00580
C         14.36688        33.93261        -0.01146
C         15.53477        35.93350         0.95139
C         14.35572        35.44039         0.14018
C         15.49694        37.40262         1.34691
C         14.26456        38.17393         0.99827
C         15.61143        40.28881         1.01380
C         14.31291        39.57985         0.90691
C         15.56568        41.77708         1.06306
C         14.48931        42.40566         0.28003
C         15.71335        44.65600         0.67055
C         14.53638        43.91116         0.15407
C         15.69523        46.05739         0.57286
C         14.51159        46.74471         0.11813
C         15.76932        48.84843        -0.19106
C         14.56566        48.12845        -0.19421
C         15.85075        50.16144        -0.67832
C         18.87740        11.23679         2.86363
C         18.76299        12.55639         2.35245
C         17.58297        13.30456         2.42526
C         18.61428        15.18457         1.18760
C         17.46772        14.61830         1.86031
C         18.57919        16.54465         0.64896
C         17.21577        17.18935         0.56194
C         18.29229        19.00314        -0.91154
C         17.04472        18.30028        -0.41371
C         18.17731        20.41443        -1.43525
C         16.94821        21.18581        -1.18342
C         18.16609        23.35866        -1.52331
C         16.97869        22.62100        -1.19776
C         18.19455        24.77686        -1.51747
C         16.97598        25.49046        -1.41288
C         18.22103        27.66135        -1.32292
C         16.96009        26.94856        -1.79608
C         18.23090        29.02785        -1.03494
C         16.99559        29.82691        -1.26415
C         18.17959        31.83815        -0.20276
C         16.93698        31.24354        -0.77578
C         18.01403        32.95957         0.80026
C         16.81768        33.82739         0.46076
C         17.96444        35.77755         1.60856
C         16.88930        35.31839         0.62638
C         17.95882        37.26466         1.95989
C         16.78192        38.06144         1.56057
C         18.15797        40.11703         1.71665
C         16.87227        39.50120         1.34080
C         18.35235        41.45934         2.05915
C         16.51385        42.59490         1.63652
C         18.09501        44.59330         1.64062
C         16.77208        43.96334         1.30241
C         18.19612        46.08177         1.27637
C         16.90322        46.80173         0.93150
C         18.29260        48.73496         0.05736
C         16.97412        48.22771         0.41873
C         18.31791        50.16252        -0.30931
C         17.07887        50.86894        -0.70969
C         18.39914        52.88410        -1.35637
C         17.15712        52.18352        -1.15578
C         18.38846        54.25862        -1.56755
C         21.29655         6.91987         3.16023
C         21.24861         8.25559         2.82605
C         20.08145         9.06751         3.04037
C         21.05302        10.90220         1.70781
C         19.99958        10.40384         2.62895
C         21.15386        12.35202         1.42322
C         19.94391        13.18642         1.70996
C         20.74150        14.85804         0.00401
C         19.77178        14.44964         0.97163
C         20.74522        16.20696        -0.55285
C         19.71162        17.05233        -0.16809
C         20.77734        19.09762        -1.26360
C         19.67754        18.55142        -0.40430
C         20.75053        20.45719        -1.62274
C         19.43920        21.14893        -1.77592
C         20.67924        23.37553        -1.87675
C         19.40627        22.64985        -1.86018
C         20.67110        24.76311        -1.75579
C         19.45245        25.49688        -1.60448
C         20.66751        27.62730        -1.15919
C         19.45667        26.92417        -1.36771
C         20.67711        28.98085        -0.68898
C         19.43135        29.69082        -0.60482
C         20.60033        31.67518         0.31243
C         19.43334        31.04064        -0.14281
C         20.54410        33.02861         0.86273
C         19.32723        33.68971         1.01334
C         20.55935        35.74284         1.94810
C         19.24708        34.99560         1.67388
C         20.56312        37.20071         1.96624
C         19.29457        37.97183         2.26520
C         20.61212        40.11511         1.77493
C         19.35667        39.28408         1.44103
C         20.56113        41.49253         1.11517
C         19.39569        42.25898         1.56869
C         20.73688        44.45804         1.39515
C         19.42991        43.73785         1.91524
C         20.75777        45.96338         1.03155
C         19.47205        46.70366         0.84879
C         20.73720        48.37662        -0.56131
C         19.47137        47.97567         0.23110
C         20.78540        49.89778        -0.96336
C         19.62120        50.78862        -0.70254
C         20.88521        52.76970        -1.45071
C         19.64838        52.14829        -1.27719
C         20.90372        54.21560        -1.76122
C         19.61899        55.01487        -1.78635
C         20.82584        57.14576        -1.23285
C         19.65997        56.47038        -1.51090
C         20.87188        58.55521        -0.95563
C         23.57872         3.91709         2.65548
C         22.45433         4.65427         2.96837
C         23.85644         6.76790         2.71009
C         22.52991         6.10789         3.11522
C         23.79351         8.20983         2.29862
C         22.48329         8.92745         2.31950
C         23.45908        10.78123         0.78225
C         22.29795        10.12259         1.44173
C         23.31543        12.00129         0.11111
C         22.07649        12.74793         0.33160
C         23.39193        14.74155        -1.32286
C         21.67726        13.85512        -0.40167
C         23.28401        16.14223        -1.34610
C         21.91726        16.77128        -1.35712
C         23.24293        18.97863        -1.71944
C         21.95137        18.27484        -1.58621
C         23.24039        20.49330        -1.59984
C         21.92306        21.14601        -1.97564
C         23.25723        23.35883        -2.13870
C         21.89632        22.60184        -2.20702
C         23.23083        24.75059        -1.68130
C         21.95310        25.50053        -1.83166
C         23.23184        27.59168        -1.07194
C         21.93864        26.96266        -1.49779
C         23.18182        28.97496        -0.50662
C         21.87905        29.64510        -0.32102
C         23.05224        31.54761         0.72121
C         21.86243        30.95966         0.25195
C         23.08769        32.98094         1.07684
C         21.79022        33.70371         1.22872
C         23.02126        35.71798         2.12348
C         21.80231        35.00980         1.65189
C         23.03212        37.19258         1.92229
C         21.79282        37.89965         1.76249
C         23.06287        39.99474         1.29228
C         21.84585        39.30966         1.54220
C         23.09606        41.39054         0.97446
C         21.87459        42.19111         0.82395
C         23.11312        44.33348         0.62974
C         21.92900        43.68049         0.92753
C         23.18895        45.78435         0.47149
C         22.02717        46.53197         0.50753
C         23.31354        48.57942        -0.31119
C         22.02831        48.02137         0.27573
C         23.33059        49.86577        -0.79060
C         22.09751        50.61707        -1.09613
C         23.38895        52.75502        -1.28098
C         22.13729        52.09315        -1.22374
C         23.45006        54.23146        -1.66747
C         22.14358        54.91926        -1.32557
C         23.39342        57.10499        -1.12500
C         22.09361        56.37905        -1.07385
C         23.37173        58.57483        -0.87230
C         22.05691        59.24193        -0.68616
C         23.28539        61.23931         0.03974
C         22.08165        60.60048        -0.28251
C         24.79497         4.51310         2.26504
C         26.01361         6.48150         1.45943
C         24.92892         5.91912         2.13067
C         26.12882         7.91028         1.15468
C         24.92599         8.77451         1.48170
C         25.81056        10.49206        -0.22103
C         24.64283         9.93245         0.56646
C         25.71232        11.92131        -0.54504
C         24.50862        12.61464        -0.51487
C         25.73160        14.79691        -0.94960
C         24.54280        14.03357        -0.93991
C         25.73461        16.17895        -1.28484
C         24.48646        16.87344        -1.45683
C         25.70961        19.03727        -1.81201
C         24.44888        18.30835        -1.69859
C         25.72976        20.40373        -1.95119
C         24.45073        21.13069        -2.30518
C         25.67129        23.25079        -1.64448
C         24.50159        22.60201        -1.97288
C         25.63491        24.62887        -1.18686
C         24.36786        25.32275        -1.16052
C         25.61895        27.35925        -0.26943
C         24.29293        26.67232        -0.48965
C         25.55577        28.73121         0.19384
C         24.36721        29.44309         0.22213
C         25.55926        31.42066         1.19527
C         24.24692        30.68639         1.04928
C         25.54189        32.66855         1.81303
C         24.34684        33.56830         1.68925
C         25.53944        35.77547         2.37200
C         24.29180        34.94931         2.33506
C         25.42270        37.26302         2.56501
C         24.23904        37.91253         1.89644
C         25.57392        39.90864         1.23740
C         24.27531        39.26219         1.49875
C         25.64901        41.31310         0.68437
C         24.33647        42.03275         0.50880
C         25.65379        44.22054         0.15169
C         24.31837        43.53035         0.25957
C         25.68814        45.69207         0.21043
C         24.48382        46.42978         0.18686
C         25.80205        48.41872        -0.43778
C         24.54414        47.81253        -0.16982
C         25.85392        49.79007        -0.99984
C         24.57915        50.55675        -1.15865
C         25.85498        52.72500        -0.98897
C         24.60832        52.04707        -1.16196
C         25.95229        54.23889        -1.11680
C         24.63335        54.96560        -1.08466
C         25.82405        57.03116        -0.41746
C         24.61708        56.30768        -0.85177
C         25.76827        58.45931        -0.22327
C         24.60420        59.20949        -0.34888
C         24.51441        60.57433         0.03350
C         27.14900         8.44606         0.24203
C         28.30124        10.47737        -0.50898
C         27.13647         9.80306        -0.14486
C         28.30231        11.88552        -0.91223
C         26.96892        12.61673        -0.91601
C         28.29050        14.83123        -0.82237
C         26.99708        14.09498        -0.68966
C         28.22535        16.24556        -1.24473
C         26.99000        16.87323        -1.42806
C         28.23602        19.03701        -1.81234
C         26.97254        18.24848        -2.04370
C         28.21768        20.45060        -1.87273
C         26.96850        21.15228        -1.90382
C         28.17137        23.28610        -1.66995
C         26.95111        22.54852        -1.72682
C         28.09891        24.72269        -1.28164
C         26.80735        25.26568        -0.77467
C         28.02774        27.16219         0.39065
C         26.79365        26.62132        -0.26304
C         27.92596        28.56631         0.87976
C         26.77809        29.33991         0.69305
C         28.04326        31.36392         1.41197
C         26.79416        30.71293         1.10603
C         28.02608        32.66508         1.99586
C         26.76475        33.10429         2.38117
C         28.02760        35.79908         2.47680
C         26.73902        35.24189         2.78174
C         28.04770        37.18276         2.31333
C         26.77753        37.96500         2.42084
C         28.07146        40.04468         1.67076
C         26.78974        39.37343         1.90526
C         28.09381        41.40274         1.30468
C         26.90924        42.05892         0.87596
C         28.20348        44.22978         0.65249
C         26.96296        43.45398         0.43879
C         28.18054        45.60389         0.32895
C         26.96400        46.33308         0.12386
C         28.29040        48.42315        -0.19911
C         27.01661        47.73160        -0.18517
C         28.37586        49.85790        -0.55206
C         27.12562        50.57897        -0.93170
C         28.27922        52.75192        -0.40061
C         27.05546        52.04499        -0.77138
C         28.23977        54.11335        -0.15003
C         26.91287        54.81117        -0.07627
C         26.96199        56.31532        -0.12493
C         29.54264        12.68214        -0.88086
C         30.73629        14.81681        -1.19911
C         29.55132        14.06452        -1.01259
C         30.71209        16.22404        -1.36835
C         29.46162        16.93094        -1.45435
C         30.69270        19.07374        -1.74739
C         29.45840        18.34823        -1.67565
C         30.67629        20.46574        -1.92145
C         29.44389        21.18952        -1.89544
C         30.65712        23.40381        -1.97039
C         29.40004        22.62002        -1.84644
C         30.66329        24.83621        -1.49616
C         29.37515        25.47127        -1.00708
C         30.71127        27.18161         0.31954
C         29.39254        26.51201         0.08940
C         30.88765        28.17655         1.25942
C         29.01010        29.20930         1.53165
C         30.57823        31.19209         1.86259
C         29.22939        30.58274         1.56356
C         30.59290        32.71998         2.03002
C         29.27087        33.43074         2.31811
C         30.52152        35.69244         2.00313
C         29.27658        34.97418         2.42978
C         30.49822        37.13645         2.03844
C         29.28273        37.85818         2.15968
C         30.54162        40.09102         2.20190
C         29.25002        39.33742         2.19079
C         30.51706        41.51171         1.80371
C         29.35669        42.14740         1.40342
C         30.64683        44.24304         1.12042
C         29.38619        43.55829         1.06328
C         30.74612        45.60373         0.56165
C         29.46501        46.30863         0.17793
C         30.71865        48.50042         0.30750
C         29.47364        47.77681         0.10273
C         30.71669        49.91330         0.25004
C         29.55840        50.63505        -0.11227
C         29.49681        52.02467        -0.14732
C         31.92390        16.95199        -1.49172
C         33.17671        19.05309        -1.71165
C         31.94929        18.34805        -1.66287
C         33.22502        20.44880        -1.90313
C         31.95725        21.16229        -2.16072
C         33.23988        23.34717        -1.81411
C         31.97098        22.68871        -2.14509
C         33.27434        24.75650        -1.39958
C         31.98215        25.48997        -1.16349
C         33.29484        27.03646         0.44850
C         31.98339        26.50641        -0.06991
C         33.30728        28.40971         1.08896
C         31.99885        29.09887         1.26083
C         33.01955        31.32256         1.31694
C         31.86613        30.48229         1.47896
C         32.87174        32.72858         1.08373
C         31.73680        33.52044         1.48978
C         32.77920        35.84033         1.08504
C         31.65773        34.97858         1.49710
C         32.89519        37.20717         1.46519
C         31.72722        37.90919         1.90171
C         32.99183        40.04638         1.79454
C         31.77518        39.30958         2.00722
C         33.02242        41.45912         1.85588
C         31.77240        42.25692         2.15613
C         33.07599        44.33344         1.54650
C         31.81086        43.63776         1.57258
C         33.08892        45.74464         1.32100
C         31.94311        46.41529         0.88549
C         31.89485        47.81105         0.68764
C         34.42071        21.17800        -1.90144
C         35.69106        23.29489        -1.66833
C         34.44240        22.60475        -1.82235
C         35.76353        24.62460        -1.22728
C         34.53609        25.30494        -0.83806
C         35.85538        27.12006         0.15378
C         34.56007        26.47555        -0.11685
C         35.85892        28.59655         0.66565
C         34.55721        29.22536         1.13876
C         35.55145        31.55470         0.67509
C         34.39002        30.72732         1.19676
C         35.22930        32.90442         0.15620
C         33.91831        33.30047         0.25531
C         35.06603        35.98685         0.09026
C         33.79194        35.40624         0.20494
C         35.23956        37.27648         0.64104
C         34.10578        37.93056         1.20847
C         35.40991        40.04050         1.27025
C         34.17884        39.33098         1.45592
C         35.43681        41.43569         1.44828
C         34.24880        42.16039         1.69524
C         34.25947        43.59629         1.69121
C         36.98569        25.33388        -1.14154
C         38.16169        27.45526        -0.69784
C         37.03071        26.63283        -0.59764
C         38.07860        28.85409        -0.45694
C         36.91993        29.42474         0.11144
C         37.73462        31.69741        -0.69948
C         36.65704        30.85634        -0.07350
C         37.69645        33.17840        -0.37210
C         36.27817        33.72979        -0.50348
C         37.49185        36.00930        -0.59366
C         36.20230        35.27084        -0.53089
C         37.59323        37.29767        -0.13286
C         36.48174        37.98897         0.47167
C         36.56684        39.32664         0.83145
C         39.15939        29.70155        -0.91532
C         40.10532        31.93063        -1.44636
C         39.03885        31.06658        -0.99681
C         39.94299        33.28339        -1.55412
C         38.74907        33.96783        -1.11908
C         38.64750        35.33326        -1.14221
O         28.62880        26.15322         1.28262
O         19.17323        50.86212         0.69537
O         16.50811        39.85621        -0.10163
O         36.62226        31.23033        -1.51366
O         30.81108        31.81527         3.16815
O         27.52931        12.17505        -2.17732
O         21.34508        50.08030        -2.27173
O         35.41573        31.32347         2.09390
O         23.52488        58.02618        -2.24656
O         22.25079        14.02807        -1.66511
O         14.21498        23.52644         0.98409
O         17.58631        36.21271         2.93159
O         35.95383        34.43714        -1.71323
O         24.07075        33.73890         0.24355
O         18.16060        19.22344        -2.32983
O         23.47180         9.14758         3.37895
O         12.40218        24.82513        -2.06087
O         30.34361        45.68847        -0.84384
O         33.48295        34.31538        -0.60818
O         32.73558        25.79017        -2.36076
O         19.29757        21.78468        -3.07637
O         29.90557        28.40044         2.20839
O         24.11259        42.60239        -0.83937
O         21.59696        17.30239        -2.67293
O         15.77902        20.89656         0.95021
O         30.55899        24.52108        -2.90700
O         16.73257        47.93208         1.84406
O         21.13997        13.20391         2.60597
O         27.70067        14.55048         0.51264
O         26.44698        43.66944        -0.93040
O         21.98715        26.50798        -2.89844
O         16.15242        18.13509        -1.56183
O         22.58193        23.09010        -3.41859
O         17.27666        42.08584         2.68617
O         20.97329        41.64589        -0.25770
O         18.11438        17.55457         1.66646
O         26.08862         8.87877         2.32631
O         12.42740        29.47714        -2.55714
O         29.81225        39.87541         3.47141
O         23.61022        28.67839        -1.92846
O         20.68048        47.60280        -1.68537
O         24.81241         9.62516        -0.86186
O         32.58985        25.97808         1.18750
O         21.15495        10.04337         0.51858
O         28.59029        25.79683        -2.19342
O         17.79782        32.17302        -1.56886
O         25.23428        49.93334        -2.32412
O         34.08204        28.53372         2.33191
O         16.43699        29.65764        -2.60043
O         26.74992        39.09342         3.35837
O         28.07169        50.13276        -1.97158
O         21.04983        45.47522         2.39592
O         26.68931        34.01188         3.42211
O         29.37171        34.09218         3.60864
O         15.25806        36.27059         2.31290
O         25.80174        40.13615        -0.19515
O         22.05976        55.41296         0.04749
O         18.06074        45.62489         2.67411
O         20.36272        54.62082        -3.04423
O         19.80464        35.06366         3.02414
O         14.86816        43.03846        -0.99041
O         23.56684         6.53255         4.09850
O         23.40700        35.17531         3.46611
O         36.22493        27.48339         1.51571
O         31.99097        21.93399        -3.40410
O         17.25394        35.88958        -0.68715
H         17.75261        35.21412        -1.19663
O         26.95095        17.98182        -3.50247
H         26.75424        18.82964        -3.95753
O         14.48571        36.00077        -1.19023
H         15.43749        35.95057        -1.44784
O         12.82357        35.49334         2.07865
H         13.58058        35.80512         2.63240
O         23.62717        54.26477        -3.11279
H         22.82448        53.88860        -3.53542
O          9.44645        31.20773        -2.76755
H         10.26345        30.75190        -3.06716
O         24.30700        20.97805        -3.73603
H         23.64459        21.64717        -4.04097
O         17.74236        32.29093         2.07890
H         17.76865        32.96809         2.78911
O         23.96342        30.19602         2.42743
H         24.71910        29.63432         2.70527
O         19.55884        43.71119         3.34302
H         19.37140        44.62254         3.66933
O         31.71189        42.42892         3.62212
H         31.35680        41.59580         4.00434
O         11.09420        27.85965         1.11950
H         10.27340        28.17662         1.55367
O         38.01335        33.30890         1.04558
H         38.94406        33.03399         1.18316
O         13.76665        17.63012        -0.95695
H         14.46524        17.31772        -1.58065
O         25.06048        37.37635         3.97971
H         25.83104        37.10808         4.52352
O         23.77808        26.39177         0.86470
H         24.44029        25.83779         1.33118
O         26.50951        54.49904        -2.42843
H         25.79735        54.33810        -3.08824
O         23.41180        20.78099        -0.17128
H         22.66974        20.35914         0.31439
O         19.38294        38.83864         0.07288
H         19.18497        39.59732        -0.51694
O         20.62972        40.45975         3.18392
H         20.36857        39.66728         3.71435
O         26.34671        54.45605         1.23395
H         26.89083        54.88828         1.92525
O         16.98714        26.99576        -3.26561
H         16.90470        27.94751        -3.51647
O         19.26212        38.27380         3.68047
H         19.09431        37.42364         4.14717
O         19.90258        19.24162         0.86935
H         19.29454        18.83043         1.53798
O         21.89639        48.67559         1.56362
H         21.25818        48.17322         2.11484
H          4.80787        31.32427        -0.54553
H          4.76933        33.79622        -0.47043
H          7.34116        27.07661        -0.34659
H          6.06961        29.21511        -0.50187
H          5.99332        35.95740        -0.39567
H          7.25924        38.11810        -0.28797
H          9.94334        22.91999         0.40328
H          8.61640        24.97986        -0.00822
H          8.55037        40.23504        -0.24789
H          9.85511        42.33233        -0.29884
H         12.44059        18.77335         0.90706
H         11.24338        20.82698         0.68587
H         11.12947        44.42391        -0.34409
H         12.38323        46.59478        -0.29623
H         15.36396        14.81385         2.31834
H         13.93264        16.66688         1.55716
H         13.65341        48.62028        -0.56324
H         14.94286        50.65076        -1.06104
H         18.02967        10.82317         3.43117
H         16.69341        12.85922         2.89558
H         16.22394        52.71973        -1.38389
H         17.44138        54.80975        -1.46507
H         20.37673         6.42031         3.50221
H         19.23917         8.62371         3.59237
H         18.70702        57.02103        -1.53986
H         19.91947        59.10601        -0.91639
H         23.50458         2.82056         2.62379
H         21.48417         4.15574         3.10677
H         23.25594        62.29300         0.35186
H         21.13432        61.15226        -0.19784
H         25.62508         3.87098         1.93835
H         26.76746         5.80803         1.02386
H         26.68029        58.95808         0.14043
H         25.42153        61.10084         0.36368
H         28.06633         7.85640         0.09448
H         29.27159         9.97680        -0.37302
H         29.15100        54.63266         0.18747
H         27.86362        56.83506         0.23654
H         30.49889        12.13725        -0.85840
H         31.70313        14.29341        -1.23780
H         31.63718        50.46103         0.50113
H         30.39001        52.60493         0.12994
H         32.87705        16.40632        -1.42874
H         34.11712        18.49629        -1.58605
H         34.02729        46.30154         1.46158
H         32.80295        48.40083         0.88437
H         35.37446        20.63778        -1.81022
H         36.62301        22.74258        -1.85799
H         36.38213        41.98063         1.30844
H         35.22771        44.11578         1.63478
H         37.90111        24.88831        -1.55763
H         39.06581        27.06031        -1.18451
H         38.55403        37.82782        -0.21608
H         37.50981        39.87378         0.68577
H         40.10236        29.21893        -1.21323
H         41.05336        31.46607        -1.75415
H         40.75933        33.89636        -1.96471
H         39.48837        35.94229        -1.50936
