         732
 CSIRO Nanostructure Databank - Neutral Graphene Oxide Data Set
C         23.13943        24.41266        -0.36991
C         21.93058        25.08075        -0.22115
C         23.07213        27.23739        -0.30135
C         21.89109        26.47527        -0.18181
C         23.04443        28.68781        -0.25330
C         21.83515        29.39642        -0.06529
C         22.99390        31.53821        -0.20345
C         21.80918        30.77626        -0.02939
C         22.94596        32.99770        -0.18779
C         21.76848        33.71134        -0.05128
C         22.88969        35.87510         0.32031
C         21.73979        35.11305         0.16173
C         22.86463        37.30017         0.51924
C         21.69715        38.04762         0.37207
C         22.90228        40.18651         0.48689
C         21.70730        39.44741         0.41878
C         22.90336        41.62988         0.55953
C         21.71362        42.37259         0.57845
C         22.86783        44.52242         0.74934
C         21.70516        43.77933         0.60651
C         22.84713        45.97034         0.72384
C         21.72285        46.70480         0.40204
C         22.79992        48.87718         0.76663
C         21.70488        48.14018         0.44337
C         25.71477        23.02220        -0.52590
C         25.60599        24.45567        -0.65989
C         24.35405        25.13254        -0.48925
C         25.53628        27.31746        -0.57543
C         24.31736        26.56423        -0.46900
C         25.50598        28.73226        -0.54503
C         24.25299        29.43049        -0.39479
C         25.47543        31.62344        -0.68836
C         24.21408        30.85199        -0.37101
C         25.48968        33.03188        -0.16067
C         24.21080        33.75002        -0.23831
C         25.46049        35.77366         0.73272
C         24.20043        35.22747         0.07344
C         25.44362        37.30365         0.84640
C         24.12025        38.03846         0.78418
C         25.37708        40.18248         0.49409
C         24.15431        39.49480         0.54884
C         25.36312        41.62371         0.47463
C         24.16360        42.31568         0.58604
C         25.34168        44.54135         0.38932
C         24.16627        43.77002         1.02163
C         25.38821        45.96873         0.90606
C         24.09915        46.71271         1.05732
C         25.39613        48.95215         0.76822
C         24.09526        48.22695         1.03480
C         25.44842        50.36025         0.28922
C         27.97463        23.09461        -1.54199
C         26.85475        22.36450        -0.84721
C         28.03707        24.53710        -1.10583
C         26.80754        25.20735        -0.84605
C         28.01755        27.35518        -0.74239
C         26.78629        26.63046        -0.72184
C         28.00547        28.76465        -0.57371
C         26.74803        29.47135        -0.52525
C         27.96351        31.59885         0.01847
C         26.73006        30.85774        -0.40242
C         27.91728        33.06373        -0.31731
C         26.70160        33.75307        -0.15570
C         27.90628        35.88524         0.16373
C         26.71800        35.19733         0.11133
C         27.95188        37.28707         0.73754
C         26.66969        38.07136         0.57030
C         27.90739        40.20596         0.46650
C         26.64748        39.45736         0.50103
C         27.91725        41.61788         0.46377
C         26.64519        42.35610         0.12048
C         27.83813        44.50212         0.67984
C         26.66134        43.81226         0.52117
C         27.82560        45.97092         0.76135
C         26.66722        46.69531         0.74940
C         27.88662        48.92948         0.55037
C         26.61497        48.15052         0.33257
C         27.90702        50.28586         0.32233
C         26.63498        50.96685         0.06741
C         30.56023        20.31094        -1.71415
C         29.34207        20.99842        -1.65539
C         30.51822        23.11235        -1.42621
C         29.30149        22.37891        -1.49020
C         30.51054        24.54190        -1.28322
C         29.25822        25.24228        -1.11194
C         30.49361        27.37741        -0.91802
C         29.25930        26.65795        -0.91283
C         30.48426        28.80180        -0.72369
C         29.24050        29.49892        -0.55234
C         30.44798        31.63684        -0.38883
C         29.23657        30.89912        -0.36996
C         30.43332        33.06526        -0.36710
C         29.15685        33.81404        -0.68336
C         30.34427        35.94476        -0.19966
C         29.15674        35.24620        -0.17940
C         30.36663        37.37760         0.04915
C         29.18036        38.06433         0.34807
C         30.37347        40.21433         0.30647
C         29.14849        39.48812         0.41165
C         30.37559        41.63721         0.45113
C         29.12999        42.34927         0.54998
C         30.32726        44.52064         0.64982
C         29.12767        43.80299         0.64129
C         30.36652        45.96139         0.69841
C         29.11219        46.68569         0.92705
C         30.39902        48.88813         0.61031
C         29.12478        48.20730         0.88245
C         30.39915        50.32211         0.46398
C         29.16896        51.02551         0.38927
C         30.40080        53.13595         0.42801
C         29.20540        52.44050         0.36372
C         33.09719        18.86528        -1.77151
C         33.05170        20.27075        -1.72407
C         31.77841        20.99378        -1.65872
C         32.97608        23.17336        -1.61249
C         31.75981        22.41848        -1.53901
C         32.96791        24.55822        -1.48715
C         31.72999        25.26040        -1.28590
C         32.96511        27.41497        -1.04515
C         31.72194        26.68870        -1.10651
C         32.95416        28.83299        -0.82959
C         31.70255        29.52367        -0.68274
C         32.90503        31.68492        -0.58816
C         31.69156        30.94152        -0.51579
C         32.86314        33.09299        -0.54745
C         31.63162        33.77800        -0.43610
C         32.85995        35.98613        -0.43244
C         31.57630        35.25981        -0.75328
C         32.83874        37.39609        -0.21190
C         31.60275        38.09752        -0.04102
C         32.83344        40.24043         0.05046
C         31.60320        39.51437         0.11997
C         32.82351        41.66879         0.14756
C         31.60820        42.33653         0.39342
C         32.75653        44.54592         0.04385
C         31.65104        43.79059         0.78190
C         32.83539        45.95558         0.59652
C         31.55219        46.70381         0.60622
C         32.83295        48.86930         0.28168
C         31.56965        48.13743         0.55774
C         32.88321        50.33327         0.46578
C         31.64243        51.04079         0.47542
C         32.91120        53.16140         0.57749
C         31.64776        52.46248         0.48750
C         32.95891        54.57665         0.62383
C         35.53649        18.87823        -1.85167
C         34.31114        18.19285        -1.85647
C         35.52545        20.30657        -1.79007
C         34.27284        20.98254        -1.77219
C         35.55679        23.19539        -1.76675
C         34.23857        22.44533        -1.89623
C         35.50974        24.61599        -1.41922
C         34.23200        25.35424        -1.75242
C         35.41816        27.42035        -0.94787
C         34.19484        26.74070        -1.17630
C         35.41111        28.84117        -0.83334
C         34.17160        29.55436        -0.83065
C         35.36248        31.71997        -0.84874
C         34.16427        30.99588        -0.77568
C         35.36447        33.14064        -0.77696
C         34.06872        33.87621        -1.00643
C         35.31077        35.99563        -0.39882
C         34.07278        35.30670        -0.53090
C         35.31019        37.41240        -0.24900
C         34.06978        38.11247        -0.16637
C         35.29908        40.25394        -0.12754
C         34.06402        39.53580        -0.06637
C         35.27224        41.67220        -0.18213
C         34.07018        42.39802        -0.02342
C         35.28383        44.55893        -0.07341
C         34.08695        43.82715         0.01563
C         35.36069        45.96063         0.16216
C         34.13027        46.67628         0.54790
C         35.39380        48.85431         0.49929
C         34.13295        48.13799         0.28924
C         35.38116        50.27455         0.59888
C         34.11704        50.99997         0.54919
C         35.37718        53.13057         0.81840
C         34.13855        52.43595         0.64798
C         35.38230        54.54511         0.90097
C         34.15454        55.24496         0.77436
C         38.01194        16.02165        -1.78804
C         36.83072        16.73025        -1.93961
C         37.99151        18.80929        -1.46358
C         36.79438        18.13396        -1.78736
C         38.07056        20.30141        -1.70177
C         36.75847        21.03958        -1.63697
C         37.97968        23.16797        -1.17782
C         36.78773        22.42854        -1.50576
C         37.94333        24.56045        -0.97972
C         36.67475        25.27153        -1.06207
C         37.86054        27.39380        -0.61430
C         36.65988        26.70649        -0.86919
C         37.84137        28.82182        -0.60071
C         36.65207        29.53516        -0.75530
C         37.84313        31.74681        -0.51915
C         36.66795        31.00782        -1.09641
C         37.80560        33.12324        -0.37044
C         36.55449        33.84662        -0.54669
C         37.77094        35.98058        -0.25693
C         36.54954        35.27689        -0.41534
C         37.78306        37.40887        -0.23317
C         36.54552        38.12860        -0.23110
C         37.78767        40.26245        -0.26526
C         36.54240        39.55024        -0.20959
C         37.80433        41.67301        -0.36856
C         36.52022        42.37055        -0.51293
C         37.81897        44.57775        -0.25662
C         36.53525        43.89087        -0.45365
C         37.81958        45.96786        -0.00835
C         36.57047        46.66999         0.16179
C         37.83333        48.75436         0.59401
C         36.59877        48.09448         0.44807
C         37.83162        50.15610         1.13762
C         36.59603        50.96144         0.79612
C         37.82959        53.05162         1.22746
C         36.62901        52.38814         0.92748
C         37.83650        54.50369         1.45985
C         36.61843        55.26717         1.14233
C         37.91252        57.35209         1.11777
C         36.68445        56.65127         1.12084
C         40.57202        14.59563        -1.47158
C         40.42160        15.91341        -1.10267
C         39.18897        16.66465        -1.34960
C         40.29039        18.75273        -0.50092
C         39.14986        18.06769        -1.15678
C         40.30861        20.28512        -0.44957
C         39.17647        21.02542        -0.99210
C         40.41579        23.11886        -0.65010
C         39.22604        22.43639        -0.95902
C         40.49087        24.61226        -0.80157
C         39.14603        25.29506        -0.68660
C         40.33128        27.38999        -0.10960
C         39.11741        26.67154        -0.49481
C         40.30123        28.76365         0.00410
C         39.13908        29.52952        -0.50079
C         40.26531        31.75564         0.11945
C         39.11535        31.03207        -0.41079
C         40.24602        33.14796         0.16196
C         39.01972        33.85274        -0.09818
C         40.23086        35.97544         0.06290
C         39.00512        35.26160        -0.10229
C         40.24482        37.38750        -0.09078
C         39.02300        38.10619        -0.22490
C         40.23508        40.26039        -0.41385
C         39.02872        39.55028        -0.29552
C         40.25497        41.68367        -0.42512
C         39.01490        42.40051        -0.39966
C         40.27158        44.54751        -0.33615
C         39.03352        43.84624        -0.35837
C         40.28018        45.96338        -0.11304
C         39.05592        46.67022         0.08204
C         40.29701        48.78379         0.42946
C         39.06079        48.07503         0.37768
C         40.31199        50.21183         0.69605
C         39.11901        50.89446         0.90333
C         40.44257        53.06167         1.30352
C         39.11110        52.31235         1.30741
C         40.55294        54.58697         1.46357
C         39.18693        55.28285         1.50102
C         40.37341        57.41262         0.83327
C         39.13796        56.70956         1.16554
C         40.41366        58.81734         0.88079
C         42.96073        14.52215        -0.92946
C         41.83518        13.92175        -1.40611
C         42.88993        15.83983        -0.28938
C         41.54036        16.58911        -0.41520
C         42.70987        18.74667         0.06655
C         41.57255        18.05819        -0.33212
C         42.70657        20.20550         0.12167
C         41.59072        20.94387        -0.26245
C         42.78806        23.10529         0.17324
C         41.73182        22.39593        -0.64431
C         42.76728        24.51285         0.36820
C         41.60352        25.27278         0.00648
C         42.72026        27.34363         0.73122
C         41.55273        26.65117         0.22764
C         42.71171        28.79752         0.83189
C         41.42499        29.49418         0.61992
C         42.68792        31.73355         0.77781
C         41.41271        31.01276         0.65396
C         42.70093        33.15090         0.67911
C         41.46031        33.87853         0.45136
C         42.66115        36.05642         0.62284
C         41.43832        35.27226         0.36604
C         42.69957        37.45376         0.15129
C         41.50505        38.08271        -0.14241
C         42.71715        40.25551        -0.17669
C         41.50680        39.48827        -0.69408
C         42.71290        41.64295        -0.78782
C         41.47726        42.41294        -0.56639
C         42.74539        44.54723        -0.60182
C         41.50748        43.82970        -0.53504
C         42.74796        45.96682        -0.31048
C         41.51414        46.67084        -0.04279
C         42.74811        48.80320         0.27669
C         41.51423        48.08205         0.20551
C         42.78442        50.21185         0.38937
C         41.57066        50.93492         0.62817
C         42.77555        53.07113         0.38046
C         41.61368        52.33742         0.76915
C         42.69146        54.50794         0.18135
C         41.56875        55.23721         0.53967
C         42.66138        57.41542        -0.03917
C         41.52893        56.68487         0.41856
C         42.66698        58.81725         0.02353
C         41.55797        59.51384         0.50083
C         45.39948        16.06658        -0.06090
C         44.08501        16.65704        -0.02590
C         45.11767        18.75757         0.69425
C         43.96452        18.03337         0.27700
C         45.07370        20.16532         0.79678
C         43.89839        20.90911         0.50605
C         44.93747        23.00477         1.36874
C         43.86678        22.34486         0.66535
C         45.04747        24.42108         1.39891
C         43.92047        25.17836         0.93578
C         45.05338        27.32848         1.60274
C         43.87750        26.60898         1.05569
C         45.04187        28.83325         1.62999
C         43.84063        29.54723         1.14194
C         45.09574        31.72949         1.09291
C         43.87409        31.00695         1.02742
C         45.15343        33.13127         0.90671
C         43.93464        33.84076         0.76851
C         45.23832        36.00853         0.53803
C         43.96300        35.31186         0.80453
C         45.24262        37.37709         0.16279
C         43.99008        38.11700        -0.02938
C         45.23078        40.17202        -0.67393
C         43.99380        39.46262        -0.34523
C         45.26543        41.63312        -0.69933
C         44.03077        42.38499        -0.90706
C         45.21255        44.52748        -0.62609
C         44.00363        43.85456        -0.74409
C         45.17166        46.02408        -0.82409
C         43.95981        46.64889        -0.19845
C         45.31579        48.82164         0.16903
C         43.98737        48.03157         0.26306
C         45.24161        50.27111         0.03469
C         44.01634        50.94750         0.21458
C         45.18360        53.09146        -0.25959
C         43.97936        52.37745         0.10230
C         45.14073        54.48335        -0.53053
C         43.83267        55.16832        -0.49479
C         45.13568        57.34841        -0.72207
C         43.82458        56.69263        -0.60009
C         46.46737        16.68726         0.49965
C         47.57265        18.75309         1.41829
C         46.28046        17.97266         1.27276
C         47.56523        20.23209         1.14041
C         46.19850        20.85467         1.36367
C         47.82655        23.18127         2.06056
C         45.95777        22.11385         1.86638
C         47.63618        24.49150         1.70856
C         46.29469        25.16269         1.99491
C         47.56827        27.32471         1.54905
C         46.36124        26.62913         1.60223
C         47.62430        28.79085         1.50681
C         46.35622        29.55698         1.66585
C         47.61441        31.70275         0.97164
C         46.35601        31.02754         1.40847
C         47.64929        33.17971         1.01012
C         46.42474        33.86249         0.92237
C         47.70003        35.97797         0.65093
C         46.44596        35.28898         0.70828
C         47.70904        37.37447         0.37076
C         46.48871        38.04119         0.05771
C         47.77948        40.21088        -0.21862
C         46.55237        39.42084        -0.44795
C         47.78576        41.59658        -0.36601
C         46.54284        42.30753        -0.74444
C         47.69476        44.49401         0.01237
C         46.51353        43.83755        -0.68870
C         47.77706        45.95890        -0.36748
C         46.50354        46.71836        -0.59422
C         47.73478        48.85857        -0.27850
C         46.52900        48.14800        -0.28270
C         47.68169        50.27989        -0.25342
C         46.45793        50.96648        -0.23196
C         47.59080        53.09604        -0.78121
C         46.42067        52.40413        -0.40327
C         47.56144        54.48582        -1.00515
C         46.31773        55.19288        -0.86109
C         46.27255        56.63843        -0.92523
C         50.00601        18.81584         1.59606
C         48.76518        18.12110         1.65047
C         50.07382        20.20552         1.43287
C         48.84214        20.96292         1.53847
C         50.10964        23.08708         1.27723
C         48.92844        22.36277         1.64476
C         50.06747        24.46804         1.18869
C         48.83231        25.21027         1.35500
C         50.09802        27.31884         1.53487
C         48.81517        26.60521         1.40139
C         50.10502        28.81308         1.60263
C         48.81184        29.48733         1.43203
C         50.14815        31.67341         1.23498
C         48.88297        30.92382         1.06420
C         50.13102        33.09506         1.17891
C         48.91338        33.84138         1.03992
C         50.14790        36.00836         0.94037
C         48.93751        35.28529         0.89349
C         50.17217        37.40570         0.63536
C         48.95809        38.08665         0.32688
C         50.21615        40.19552        -0.00575
C         48.98501        39.49595         0.06803
C         50.23447        41.62551        -0.14724
C         49.00984        42.33802        -0.23838
C         50.22042        44.47137        -0.08298
C         49.01660        43.77103        -0.17392
C         50.26555        45.94014         0.14791
C         48.97563        46.72006         0.08130
C         50.22430        48.84598        -0.26169
C         49.00822        48.16651        -0.20677
C         50.21426        50.27672        -0.45089
C         48.95315        51.07610        -0.18678
C         50.13127        53.09881        -1.08963
C         48.84601        52.29864        -1.08655
C         50.01151        54.49491        -1.36070
C         48.79964        55.14640        -1.34371
C         52.56619        20.24454         1.27323
C         51.33160        20.89086         1.23765
C         52.59466        23.07033         0.94232
C         51.29638        22.32239         0.75319
C         52.60737        24.46734         0.96896
C         51.32415        25.19313         0.87633
C         52.63487        27.38528         1.30723
C         51.35453        26.67587         1.06675
C         52.61338        28.80191         1.43555
C         51.38036        29.53942         1.41169
C         52.60631        31.68091         1.79154
C         51.35307        30.94374         1.40789
C         52.58627        33.13620         1.37947
C         51.40178        33.80919         1.25791
C         52.67580        35.99236         1.02058
C         51.39518        35.31531         1.45098
C         52.67346        37.49930         1.05674
C         51.41025        38.13452         0.53730
C         52.70316        40.13920        -0.32872
C         51.43571        39.46676         0.14508
C         52.71756        41.64366        -0.16022
C         51.47330        42.34968        -0.13516
C         52.70234        44.49823        -0.19972
C         51.46915        43.77214        -0.14572
C         52.72865        45.94359        -0.20001
C         51.51280        46.68280        -0.06827
C         52.69468        48.81675        -0.38577
C         51.49496        48.11194        -0.22777
C         52.67023        50.28669        -0.50216
C         51.37795        50.98925        -0.67442
C         52.59171        53.04936        -1.38136
C         51.35076        52.40998        -0.99425
C         53.76993        20.92165         1.03000
C         55.04340        23.06296         0.83654
C         53.80987        22.33084         0.91171
C         55.03836        24.45163         1.08658
C         53.82587        25.19953         1.13519
C         55.08548        27.35200         1.50977
C         53.84180        26.64107         1.31277
C         55.09391        28.74874         1.52428
C         53.87104        29.51578         1.47412
C         55.10779        31.67364         1.40307
C         53.88611        30.92327         1.51014
C         55.09403        33.05864         1.30212
C         53.87313        33.88970         1.62272
C         55.11832        36.00405         0.90761
C         53.87717        35.31157         1.07768
C         55.16899        37.42215         0.70838
C         53.94768        38.14247         0.57818
C         55.18637        40.15976        -0.02081
C         53.96863        39.47294         0.14241
C         55.17804        41.55619        -0.60484
C         53.91757        42.33378        -0.25697
C         55.14786        44.48812        -0.37440
C         53.92307        43.77238        -0.26842
C         55.16499        45.89906        -0.48192
C         53.96142        46.63055        -0.33228
C         55.23754        48.78596        -0.75653
C         54.01984        48.12633        -0.07834
C         55.17909        50.24415        -1.19076
C         53.93679        51.03876        -0.88474
C         53.77787        52.39554        -1.43771
C         57.40052        23.11033         0.15403
C         56.23841        22.42838         0.33648
C         57.59526        24.41588         0.79904
C         56.32795        25.10615         1.32933
C         57.69601        27.27230         1.62165
C         56.35103        26.57331         1.65503
C         57.68860        28.77906         1.67093
C         56.35958        29.50998         1.65466
C         57.58545        31.58661         1.11394
C         56.37949        30.94896         1.31021
C         57.66588        33.08951         1.23388
C         56.33794        33.73817         0.90089
C         57.66869        35.89819         0.76022
C         56.34231        35.21983         0.71898
C         57.69534        37.39256         0.64799
C         56.40505        38.12237         0.55123
C         57.68364        40.24525         0.20321
C         56.40427        39.49836         0.25419
C         57.69257        41.66526        -0.22932
C         56.45348        42.31190        -0.32752
C         57.75446        44.51871        -0.56011
C         56.40914        43.75512        -0.23908
C         57.58468        45.87898        -1.07956
C         56.38558        46.56533        -0.92537
C         57.28696        48.51898        -2.15578
C         56.30558        47.94695        -1.33921
C         57.06915        49.83685        -2.70975
C         56.04106        50.63038        -2.31568
C         59.84125        24.72758        -0.25429
C         58.77879        25.26340         0.49446
C         60.02588        27.35336         0.68711
C         58.85700        26.60107         0.95704
C         60.18277        28.72750         1.33120
C         58.89266        29.49977         1.24287
C         60.02213        31.55066         0.51966
C         58.84339        30.86539         0.99063
C         59.96289        32.94193         0.14885
C         58.81907        33.71755         0.47665
C         59.91920        35.75418        -0.35907
C         58.82640        35.10598         0.27032
C         59.92206        37.21213        -0.52387
C         58.89584        37.98834         0.03277
C         60.10850        40.10034        -0.63420
C         58.98950        39.44140         0.02411
C         60.25739        41.60008        -0.42368
C         58.92063        42.32607        -0.50024
C         59.95356        44.21536        -1.71011
C         58.90649        43.68628        -0.93523
C         59.94895        45.63990        -2.12667
C         58.72398        46.52790        -1.73635
C         59.43616        48.18872        -3.40507
C         58.48360        47.76697        -2.49321
C         60.96679        25.49006        -0.54872
C         61.06389        26.79527        -0.06761
C         61.35489        29.51342         0.82742
C         61.25140        30.81543         0.44967
C         61.03998        33.59493        -0.50899
C         61.01012        34.95386        -0.76906
C         60.96289        37.88799        -1.21775
C         61.02705        39.28950        -1.28960
C         61.27300        42.19401        -1.36058
C         61.10358        43.39488        -1.97076
C         60.69035        46.08554        -3.30175
C         60.49590        47.33436        -3.82735
O         24.89581        48.80732         2.12020
O         33.59505        46.18853         1.83172
O         50.20035        27.98046         2.83384
O         34.95237        22.91962        -3.10080
O         47.42417        46.33358        -1.71867
O         36.43563        43.18104        -1.73918
O         46.42507        30.51923         2.78542
O         31.47088        35.27933        -2.19980
O         48.21187        31.15526        -0.25396
O         57.21408        24.35980         2.20948
O         59.97238        46.54000        -0.97708
O         57.09475        29.28059         2.91470
O         38.46863        54.93457         2.72000
O         46.84379        22.57350         2.83372
O         24.31664        34.80489        -1.31401
O         49.49941        46.32824         1.38982
O         57.29059        44.31240         0.78661
O         51.22896        26.10648        -0.28652
O         39.88227        19.45387         0.71151
O         43.29518        41.83270        -2.09179
O         55.86411        49.85246         0.03833
O         41.93235        15.92016         0.82528
O         58.56668        40.03438         1.33579
O         44.83127        48.26728         1.45317
O         45.99879        39.56955        -1.79298
O         41.00805        30.22186         1.84649
O         43.48103        55.84285        -1.74971
O         39.47564        30.30137        -1.72958
O         29.10820        47.48658         2.16804
O         57.92094        36.70191         1.94552
O         24.79510        46.18286         2.23947
O         56.26113        34.30096        -0.45661
O         43.23168        35.87095         1.96966
O         44.77752        28.05983         2.85982
O         46.77913        43.18308        -1.94733
O         24.76684        37.71231         2.08333
O         53.54056        50.94456         0.51630
O         39.90794        52.49671         2.54918
O         33.46709        48.44950        -1.00124
O         57.15295        26.75847         2.87043
O         38.47655        20.37002        -3.13569
H         38.38906        21.30603        -3.42036
O         42.23687        22.42037        -2.06446
H         43.15353        22.06832        -2.04966
O         41.63750        39.38566        -2.13385
H         40.82389        38.97269        -2.49022
O         34.26850        25.55404        -3.21045
H         34.43745        24.66192        -3.60511
O         37.76964        49.98554         2.61496
H         38.06881        50.82808         3.02251
O         29.16408        33.91339        -2.14826
H         30.00629        34.43389        -2.38290
O         51.08240        22.23119        -0.70740
H         51.09051        23.14778        -1.05952
O         57.88412        33.36214         2.64958
H         58.65065        32.83121         2.95219
O         40.89262        24.82012        -2.20952
H         41.52258        24.09136        -2.44138
O         60.42866        28.48052         2.75508
H         59.60354        28.12566         3.15240
O         42.55031        40.48028         1.24929
H         42.47479        39.60693         1.69089
O         25.46786        31.81903        -2.15706
H         24.90834        32.60145        -2.35745
O         25.03910        44.61411        -1.04180
H         25.68032        45.23142        -1.45529
O         36.88292        31.03742        -2.55371
H         37.80708        30.71898        -2.70243
O         47.38338        44.45805         1.43068
H         48.09483        44.96453         1.89359
O         52.63457        37.83329         2.52260
H         53.52346        37.62458         2.88639
O         46.10701        25.16686         3.43764
H         45.50198        25.90516         3.66775
O         27.61325        23.12564        -2.97405
H         26.76412        23.61177        -3.04728
O         44.91491        46.17078        -2.26752
H         45.73258        45.87031        -2.72799
O         27.94463        31.57289         1.51993
H         28.11228        30.64680         1.79921
O         45.88653        17.58213         2.63429
H         45.03763        17.09457         2.56599
O         54.20904        48.27286         1.35648
H         54.45071        49.21916         1.50201
O         24.35140        43.65468         2.45168
H         24.37769        44.57041         2.82661
O         53.89977        34.10011         3.09010
H         53.05977        34.58903         3.30300
O         41.12665        54.79787         2.78219
H         40.50346        54.37349         3.41612
O         49.07983        51.57380         1.17676
H         49.17012        50.80471         1.77762
O         28.04539        37.07044         2.20117
H         28.03104        37.95289         2.63068
O         25.43193        35.23800         2.08239
H         26.13601        35.69705         2.59247
O         52.55421        31.73030         3.26686
H         53.21349        32.41411         3.55073
O         60.77469        41.75309         0.93732
H         60.09951        41.36289         1.54094
O         31.99963        43.81887         2.19381
H         31.24350        43.46764         2.70809
O         26.43412        48.05014        -1.13662
H         27.31513        47.91621        -1.54666
O         51.37725        35.46534         2.92788
H         51.54390        36.42815         3.10265
O         52.71270        39.92913        -1.79902
H         51.86665        40.28211        -2.15101
O         55.13021        41.37844        -2.06436
H         54.32816        40.82388        -2.24822
O         33.86564        33.97047        -2.45705
H         32.98907        34.45593        -2.57898
O         32.31650        44.66216        -1.33658
H         33.07694        44.94369        -1.88750
O         48.69350        51.80610        -2.45351
H         48.56229        52.58153        -3.03860
O         26.63017        42.36803        -1.35720
H         25.87447        42.94794        -1.61980
O         47.66012        20.31263        -0.35283
H         48.56909        20.03497        -0.60278
H         23.14090        23.31559        -0.40716
H         20.99690        24.50805        -0.13423
H         20.91858        26.96859        -0.05871
H         20.88908        28.85433         0.06045
H         20.84751        31.28109         0.12908
H         20.80290        33.18804        -0.05716
H         20.75414        35.58195         0.28629
H         20.73677        37.54096         0.20573
H         20.74327        39.96765         0.34938
H         20.74413        41.86045         0.52184
H         20.73308        44.28473         0.51494
H         20.78762        46.19670         0.13163
H         22.73477        49.97109         0.84118
H         20.75367        48.64727         0.22863
H         24.86949        22.45853        -0.10647
H         24.51254        50.92859         0.18826
H         26.91325        21.27575        -0.70942
H         26.65000        52.01607        -0.25873
H         30.53473        19.22042        -1.83480
H         28.41040        20.42612        -1.75821
H         30.36486        54.23331         0.43085
H         28.26771        53.01056         0.32208
H         32.17310        18.27379        -1.75609
H         32.03382        55.16340         0.55446
H         34.29186        17.09604        -1.89214
H         34.13709        56.34092         0.82526
H         38.00345        14.93666        -1.95550
H         35.92518        16.17909        -2.22462
H         37.86902        58.43316         0.92834
H         35.77475        57.24563         0.96529
H         39.73994        14.05515        -1.94275
H         39.54355        59.38163         1.24078
H         43.93236        14.02032        -1.03459
H         41.90203        12.91468        -1.84164
H         43.54248        59.38336        -0.32026
H         41.57689        60.61092         0.54968
H         45.53019        15.07993        -0.52800
H         45.19903        58.44286        -0.64676
H         47.45010        16.19459         0.48981
H         47.21545        57.18958        -1.04215
H         50.92729        18.22090         1.65225
H         48.79179        17.03607         1.82688
H         50.91578        55.09574        -1.53532
H         48.79330        56.22549        -1.54780
H         52.62127        19.17433         1.51859
H         52.55285        54.08493        -1.74640
H         54.70928        20.35273         1.05017
H         54.66168        52.90870        -1.84243
H         58.21805        22.64213        -0.41030
H         56.14933        21.40828        -0.06344
H         57.72747        50.18634        -3.51662
H         55.84565        51.57412        -2.84389
H         59.79704        23.69120        -0.61228
H         59.32008        49.14830        -3.92655
H         61.78612        25.05674        -1.13801
H         61.96645        27.38211        -0.28301
H         62.34636        29.04004         0.85735
H         62.16235        31.33903         0.12704
H         61.92226        33.02056        -0.82087
H         61.87255        35.41158        -1.27176
H         61.76495        37.31113        -1.69570
H         61.87472        39.73673        -1.82674
H         62.23134        41.66934        -1.47966
H         61.90861        43.79538        -2.60362
H         61.37841        45.38684        -3.79829
H         61.11121        47.66044        -4.67812
