         598
 CSIRO Nanostructure Databank - Neutral Graphene Oxide Data Set
C         23.75902        68.97099         3.61283
C         23.84775        70.23699         4.22754
C         22.82636        70.72469         5.08583
C         24.07922        72.76138         5.48698
C         22.95190        71.97139         5.70022
C         25.76655        65.25301         1.17316
C         25.78648        66.62578         1.52051
C         24.72387        67.16911         2.26828
C         25.94958        69.28812         2.49069
C         24.79521        68.47661         2.78381
C         26.03155        70.59335         3.10485
C         25.00719        71.04448         3.98813
C         26.28715        73.09296         4.41998
C         25.12442        72.31827         4.62820
C         28.01218        61.15147        -0.39877
C         27.96047        62.56198        -0.20841
C         26.87648        63.23738         0.33444
C         27.93481        65.50833         0.08713
C         26.84347        64.66790         0.50618
C         27.99843        66.86448         0.43362
C         26.93156        67.43481         1.19644
C         28.11176        69.63299         1.29329
C         26.99222        68.78339         1.67335
C         28.09106        71.03188         1.79213
C         27.13377        71.42769         2.83633
C         28.53168        73.39395         3.46328
C         27.30491        72.66276         3.54346
C         30.43446        57.12620        -1.80363
C         30.40552        58.52073        -1.80188
C         29.23800        59.19732        -1.30607
C         30.43957        61.34418        -0.61794
C         29.20075        60.51080        -0.82092
C         30.34582        62.73167        -1.20052
C         29.02628        63.37857        -0.85199
C         30.25464        65.61073        -0.99568
C         28.98442        64.86964        -0.74681
C         30.29152        67.05420        -0.68928
C         29.30554        67.64978         0.31606
C         30.31968        70.05644         0.31870
C         29.15693        69.18156         0.49060
C         30.53239        71.22960         1.08257
C         29.37968        71.85421         1.72549
C         30.88139        73.54834         2.71303
C         29.60564        72.95897         2.67791
C         32.88138        52.82946        -1.84489
C         32.86634        54.24877        -1.88421
C         31.65813        54.98984        -1.93618
C         32.90879        57.10933        -1.99011
C         31.65912        56.39492        -1.93825
C         32.90658        58.56197        -2.03877
C         31.62833        59.24849        -2.12138
C         32.80925        61.46846        -2.40307
C         31.60727        60.58372        -2.53677
C         32.77887        62.87004        -1.91135
C         31.56553        63.53885        -1.49760
C         32.68863        65.72955        -1.59704
C         31.51998        64.92906        -1.35826
C         32.65284        67.13780        -1.52526
C         31.32144        67.69623        -1.32029
C         32.70008        70.19332        -0.43063
C         31.38854        69.74780        -0.55198
C         32.86560        71.39162         0.30800
C         31.77236        71.91808         1.04476
C         33.15485        73.80859         1.84511
C         31.94117        73.12645         1.85477
C         35.29257        48.49931        -1.48692
C         35.27214        49.92992        -1.45713
C         34.09813        50.66460        -1.68887
C         35.30438        52.80808        -1.48061
C         34.07993        52.09335        -1.68141
C         35.32578        54.24165        -1.59161
C         34.10568        54.96875        -1.85948
C         35.41246        57.09248        -2.15535
C         34.11771        56.38017        -1.99229
C         35.39456        58.59614        -2.13275
C         34.09427        59.27704        -2.10202
C         35.33067        61.49085        -1.86282
C         34.13036        60.74309        -2.27320
C         35.28097        62.89155        -1.77183
C         34.00065        63.56130        -1.83478
C         35.20187        65.87703        -1.63209
C         33.94478        65.03810        -1.85267
C         35.10200        67.33352        -1.32996
C         33.84682        67.96583        -1.37674
C         35.09729        70.25502        -1.24825
C         33.79908        69.49417        -1.20189
C         35.16936        71.70652        -0.77731
C         33.99609        72.27488        -0.02652
C         35.47640        74.17799         0.86075
C         34.14943        73.56211         0.80452
C         37.70835        44.19506        -0.87716
C         37.66567        45.57795        -0.91885
C         36.47851        46.34030        -1.17050
C         37.61853        48.50273        -0.65388
C         36.43778        47.75182        -1.15835
C         37.67201        49.97258        -0.80424
C         36.49545        50.65574        -1.18024
C         37.71970        52.76825        -0.94608
C         36.51101        52.08035        -1.22168
C         37.67586        54.23362        -0.85391
C         36.50005        54.95100        -1.33092
C         37.78045        57.13386        -1.17701
C         36.71548        56.32941        -1.91279
C         37.67095        58.60647        -1.03161
C         36.57940        59.37259        -1.68877
C         37.82155        61.56264        -1.53097
C         36.53607        60.75196        -1.59222
C         37.65634        62.99419        -1.02170
C         36.46103        63.63601        -1.31593
C         37.55716        65.88677        -0.66673
C         36.32754        65.09088        -1.05520
C         37.56997        67.33196        -1.01086
C         36.38829        68.03140        -1.22700
C         37.71160        70.29001        -1.34026
C         36.40527        69.51860        -1.44728
C         37.75291        71.70206        -0.84781
C         36.48309        72.45262        -0.67158
C         37.82241        74.36120         0.24304
C         36.56311        73.68898         0.16938
C         40.28234        39.90869        -0.26036
C         40.25425        41.34151        -0.42620
C         39.04378        41.99753        -0.58466
C         40.25158        44.20856        -0.39509
C         38.93484        43.45857        -0.49296
C         40.27509        45.64802        -0.76782
C         38.95432        46.33212        -0.90575
C         40.19163        48.49071        -0.39400
C         38.92402        47.75995        -0.50931
C         40.07667        49.92251        -0.11422
C         38.86254        50.66687        -0.50848
C         40.16596        52.81788        -0.45205
C         38.91314        52.08674        -0.61622
C         40.23823        54.25797        -0.93606
C         38.93677        55.00410        -0.63076
C         39.98880        57.15859         0.00063
C         38.89260        56.49045        -0.73864
C         40.07213        58.63154        -0.04078
C         38.84261        59.36276        -0.47804
C         40.13645        61.54451        -0.31496
C         38.99567        60.79762        -0.90479
C         40.08003        63.02817        -0.23157
C         38.83070        63.73473        -0.55635
C         40.00589        65.90961        -0.12850
C         38.80378        65.12438        -0.47222
C         40.09905        67.29915        -0.60006
C         38.90793        67.96144        -1.13323
C         40.21774        70.13803        -0.78505
C         38.99214        69.50292        -1.26429
C         40.18110        71.54045        -0.36953
C         38.93299        72.31070        -0.50544
C         40.25666        74.41276        -0.12900
C         39.01016        73.72448        -0.12355
C         42.68992        35.64797         0.51021
C         42.63091        37.04362         0.42800
C         41.46544        37.76896         0.08478
C         42.77645        39.88182        -0.40639
C         41.45439        39.17676        -0.12041
C         42.74540        41.39608        -0.22099
C         41.51876        42.08443        -0.37333
C         42.75058        44.23310        -0.45963
C         41.53689        43.49105        -0.42665
C         42.73905        45.69145        -0.41423
C         41.50605        46.40443        -0.45729
C         42.66164        48.59655        -0.24229
C         41.43121        47.82946        -0.33644
C         42.63773        49.96925        -0.22303
C         41.38658        50.70677        -0.00554
C         42.60677        52.88601        -0.03320
C         41.36007        52.15918        -0.24812
C         42.58520        54.25039         0.15621
C         41.50123        55.09069        -0.46342
C         42.46857        57.09854         0.75023
C         41.22509        56.35903         0.33201
C         42.44581        58.60965         0.78605
C         41.20530        59.29844         0.31939
C         42.49195        61.47765         0.64876
C         41.18957        60.77751         0.43852
C         42.48271        62.96795         0.48248
C         41.23341        63.68260         0.12200
C         42.57625        65.83536        -0.15569
C         41.29542        65.16054         0.16236
C         42.55761        67.23524        -0.42591
C         41.34184        67.96376        -0.59274
C         42.66702        70.13036        -0.56072
C         41.40158        69.41819        -0.67847
C         42.72520        71.54186        -0.49057
C         41.49290        72.28563        -0.21143
C         42.73122        74.41112        -0.45375
C         41.49864        73.76151        -0.29706
C         45.13862        32.87559         1.16392
C         43.93680        33.55733         0.90086
C         45.13763        35.69307         1.01426
C         43.90315        34.96048         0.81927
C         45.14456        37.09185         0.96349
C         43.85960        37.79966         0.76563
C         45.22188        39.89864         0.32764
C         43.89556        39.24302         0.40442
C         45.20308        41.39187         0.17827
C         43.94586        42.12269        -0.14750
C         45.23261        44.28318        -0.51036
C         43.99126        43.53015        -0.40693
C         45.20436        45.70377        -0.33693
C         43.96305        46.39470        -0.30576
C         45.16000        48.58050        -0.74257
C         43.98651        47.88504        -0.05113
C         45.15783        50.09159        -0.76957
C         43.84838        50.78367        -0.48462
C         45.08430        52.88192         0.02091
C         43.86875        52.18401        -0.05121
C         45.08517        54.26824         0.39201
C         43.77554        54.90732         0.80045
C         44.95009        57.11086         0.78225
C         43.77919        56.41275         0.67637
C         44.96878        58.56788         0.69294
C         43.75442        59.30875         0.68364
C         44.99910        61.38039         0.37317
C         43.77228        60.71667         0.57556
C         44.98880        62.82337        -0.01413
C         43.78472        63.67558         0.27945
C         45.05236        65.76326        -0.26431
C         43.75495        65.08307        -0.18180
C         45.08438        67.17404        -0.72718
C         43.81589        67.94392        -0.73329
C         45.11639        70.09587        -0.63127
C         43.88943        69.41697        -0.62890
C         45.17018        71.51634        -0.66364
C         43.94815        72.24337        -0.58872
C         45.20788        74.34416        -0.64092
C         43.96863        73.69363        -0.56216
C         46.33113        33.56057         1.33145
C         47.57603        35.69811         1.38627
C         46.37130        34.98517         1.25193
C         47.61707        37.11026         1.26866
C         46.37138        37.81587         1.07252
C         47.62628        39.93129         0.95093
C         46.40645        39.22225         0.91345
C         47.63114        41.36243         0.82765
C         46.29374        42.01349         1.00444
C         47.66316        44.31614        -0.05646
C         46.53472        43.68972        -0.65837
C         47.64743        45.73902        -0.07801
C         46.45489        46.41994        -0.31378
C         47.74575        48.63100        -0.64896
C         46.45968        47.84678        -0.71713
C         47.67671        50.13896        -0.53615
C         46.39075        50.84981        -0.49864
C         47.57894        52.94925         0.08415
C         46.35395        52.20756        -0.17689
C         47.53008        54.26379         0.55630
C         46.27099        54.94102         0.63914
C         47.50020        57.12030         0.87682
C         46.21999        56.36451         1.15573
C         47.49229        58.51440         0.63226
C         46.21387        59.24671         0.55851
C         47.51568        61.35139         0.27140
C         46.20865        60.64373         0.36575
C         47.55065        62.79419        -0.07371
C         46.26860        63.50465        -0.34488
C         47.55656        65.65811        -0.85392
C         46.32732        64.99712        -0.30412
C         47.61001        67.14766        -0.88433
C         46.37737        67.88472        -0.48100
C         47.67877        70.05245        -0.73986
C         46.39585        69.36841        -0.50218
C         47.67129        71.47068        -0.76656
C         46.43255        72.19611        -0.71398
C         47.69056        74.30204        -0.74559
C         46.44706        73.63016        -0.70873
C         48.83943        37.83006         1.25997
C         50.07637        39.99431         1.00696
C         48.87406        39.23089         1.08589
C         50.06717        41.38282         0.79121
C         48.80679        42.07608         0.66773
C         50.07874        44.31288         0.85926
C         48.79739        43.56781         0.57215
C         50.07574        45.77756         0.54018
C         48.99444        46.42162        -0.28745
C         50.03563        48.64046         0.31356
C         48.94467        47.92773        -0.10855
C         50.03179        50.11234         0.36037
C         48.85807        50.88329        -0.06890
C         50.11818        53.08871        -0.03440
C         48.84813        52.25043         0.03709
C         50.07468        54.30295         0.87782
C         48.73013        54.92244         1.22566
C         49.93341        57.14016         1.06942
C         48.72391        56.43073         1.00604
C         49.95632        58.52647         0.77582
C         48.73447        59.18176         0.48831
C         50.03880        61.35256         0.17425
C         48.76281        60.57047        -0.09259
C         50.07444        62.73560        -0.05149
C         48.83796        63.42718        -0.50478
C         50.03560        65.69660        -0.36666
C         48.84383        64.89454        -0.77415
C         50.08143        67.15290        -0.64974
C         48.89680        67.87435        -0.78414
C         50.15128        69.99178        -0.72900
C         48.89234        69.30928        -0.77412
C         50.14853        71.44097        -0.72124
C         48.91916        72.16513        -0.77967
C         50.17208        74.27854        -0.72659
C         48.92668        73.60170        -0.75635
C         51.29165        42.13469         0.76663
C         52.66277        44.14319         0.76488
C         51.36954        43.52724         0.84343
C         52.90519        45.47216         1.17579
C         51.01125        46.56730         1.11978
C         52.49493        48.53605         0.83833
C         51.23477        47.95559         0.78701
C         52.58025        49.98257         0.50754
C         51.33199        50.81548         0.50498
C         52.60842        52.92735         0.66118
C         51.45732        52.23018        -0.05492
C         52.55040        54.43983         0.65427
C         51.21434        54.99763         1.10888
C         52.43981        57.18999         1.33954
C         51.15916        56.43152         1.60797
C         52.43650        58.57646         1.06439
C         51.21326        59.26195         0.78185
C         52.48505        61.38100         0.49738
C         51.24093        60.66025         0.49837
C         52.49850        62.79069         0.23886
C         51.28682        63.46602         0.00888
C         52.56571        65.68360        -0.20706
C         51.29102        64.95309        -0.02962
C         52.55335        67.06766        -0.46150
C         51.34008        67.81948        -0.58923
C         52.62817        69.93788        -0.54058
C         51.35997        69.24974        -0.66481
C         52.60106        71.39831        -0.32204
C         51.36271        72.14710        -0.58174
C         52.65306        74.26564        -0.66316
C         51.39140        73.57523        -0.63249
C         53.91166        46.38448         0.84360
C         54.95840        48.56349         1.12468
C         53.77612        47.82249         0.99173
C         55.02132        49.99195         1.26487
C         53.82803        50.75397         0.82658
C         54.79797        52.84471         1.84479
C         53.68900        52.21420         1.08847
C         54.78921        54.33562         1.94226
C         53.67645        55.09161         1.41217
C         54.91452        57.22616         1.63819
C         53.66923        56.49575         1.51384
C         54.89383        58.61063         1.38915
C         53.68944        59.29354         1.04592
C         54.94442        61.42291         0.67494
C         53.70525        60.69390         0.75697
C         54.94601        62.79789         0.35899
C         53.74149        63.52989         0.19009
C         55.03183        65.66262        -0.09004
C         53.77264        64.93481        -0.07485
C         55.06347        67.05671        -0.31694
C         53.83831        67.77164        -0.82467
C         55.10979        69.94999        -0.52330
C         53.83159        69.26052        -0.54622
C         55.16977        71.40577        -0.61945
C         53.92161        72.15256        -0.36361
C         55.12523        74.26404        -0.77424
C         53.87597        73.60242        -0.63893
C         56.16607        50.66370         1.62991
C         57.35159        52.89686         2.01837
C         56.12172        52.09748         1.99612
C         57.38217        54.28718         2.02084
C         56.13798        55.08665         2.13230
C         57.40126        57.15060         1.67306
C         56.16384        56.52154         1.79627
C         57.48507        58.61431         1.61456
C         56.14646        59.37460         1.49360
C         57.42035        61.34559         0.80969
C         56.18354        60.73810         0.95340
C         57.49335        62.75403         0.37850
C         56.22295        63.50561         0.17523
C         57.46683        65.67776         0.21678
C         56.24525        64.98237         0.17189
C         57.51312        67.05305        -0.08844
C         56.29037        67.75365        -0.32070
C         57.58333        69.86510        -0.54395
C         56.28243        69.19121        -0.47941
C         57.60805        71.32764        -0.89184
C         56.34106        72.10911        -0.89801
C         57.55244        74.36843        -0.75380
C         56.34644        73.58002        -0.87461
C         58.60366        55.00388         1.86882
C         59.86430        57.12172         1.68553
C         58.63977        56.40738         1.73414
C         59.98026        58.50665         1.39437
C         58.74928        59.26584         1.20174
C         59.82763        61.37576         0.44125
C         58.67042        60.62977         0.87368
C         59.99113        62.75213         0.60898
C         58.72817        63.51192         0.75141
C         60.04530        65.74239         0.59826
C         58.71863        64.99439         0.63954
C         59.98926        66.96491        -0.31116
C         58.80798        67.65583        -0.38673
C         60.06456        69.74572        -1.23260
C         58.78291        69.04008        -0.92009
C         60.06930        71.22381        -1.34823
C         58.84728        71.79371        -1.54345
C         60.10467        74.26896        -0.83619
C         58.79478        73.95821        -1.24300
C         61.28138        59.09592         1.50764
C         62.57399        61.31794         1.25553
C         61.62996        60.34364         0.93708
C         62.50821        62.69315         0.79415
C         61.25739        63.41074         0.57660
C         62.48722        65.51993         0.35584
C         61.27909        64.84385         0.44474
C         62.51901        66.89100        -0.22481
C         61.28401        67.56100        -0.75174
C         62.55332        69.84419        -0.72797
C         61.39677        69.02147        -1.27983
C         62.54222        71.25331        -0.88571
C         61.36408        72.00301        -1.55146
C         62.46804        74.10129        -0.72560
C         61.27214        73.47184        -1.05876
C         63.70559        63.42699         0.76639
C         64.95103        65.52713         0.37184
C         63.74446        64.82261         0.49318
C         64.98266        66.99355         0.39556
C         63.70596        67.73863         0.07534
C         64.93828        69.88543        -0.09873
C         63.72814        69.17612        -0.30884
C         64.92595        71.30539        -0.21976
C         63.71863        71.97619        -0.57500
C         64.88626        74.14124        -0.35636
C         63.71630        73.42424        -0.59739
C         66.30495        67.70563         0.19901
C         67.32696        69.94776         0.41233
C         66.18183        69.21442         0.20743
C         67.33288        71.37819         0.33656
C         66.12213        72.05273         0.01268
C         67.31067        74.19453         0.15776
C         66.11363        73.47953        -0.07427
C         68.50940        72.12564         0.55740
C         68.49043        73.51864         0.46602
O         60.82641        60.66708        -0.19605
O         40.20357        61.01789        -1.70990
O         36.53494        65.49931         0.33290
O         57.02241        62.98279        -0.98954
O         47.39341        66.37200        -2.11770
O         46.45474        68.57122         0.78689
O         31.34014        61.04206         0.15743
O         38.05935        48.01128         0.65813
O         37.07277        70.04548        -2.63267
O         42.99886        39.68094        -1.77696
O         31.12871        69.01481        -1.69012
O         49.13093        44.05961         1.94336
O         44.34850        50.61317        -1.87259
O         48.97556        63.93521        -1.87277
O         34.76979        65.55059        -2.96958
O         35.62874        72.57969        -1.84928
O         40.51078        65.73783         1.24917
O         56.83868        59.24997         2.77416
O         37.71334        59.08592         0.39758
O         35.54444        57.83921        -3.41944
O         55.26303        54.80527         3.24497
O         51.90827        45.99485         2.02410
O         57.89012        70.84146         0.49565
O         46.05075        42.80595         1.90349
O         41.58154        61.17474         1.77639
O         50.53312        50.63464         1.69127
O         58.56237        64.32828         1.96147
O         45.88310        65.56877         0.96047
O         28.27812        72.07335         0.78131
O         55.14701        52.24964         3.11978
O         43.21644        63.56029         1.61859
O         40.34463        54.04059        -2.31539
O         34.21870        70.17253        -2.42190
O         43.58247        38.87343         1.77168
O         40.65102        50.29666         1.18780
O         40.17406        56.45593         1.30154
O         47.68035        62.35141         1.32418
O         29.28813        62.88980        -2.20418
O         38.18896        54.61501         0.53561
O         44.45756        67.42996        -2.00461
O         58.73392        72.97920        -2.25199
O         39.17199        68.63420        -2.41025
O         62.11530        66.72700        -1.63303
O         59.18240        69.16717        -2.31930
O         45.61444        40.51574        -0.93429
O         50.07658        53.79109        -1.27665
O         33.54837        73.54293        -0.55185
O         39.47782        43.96212         0.81584
O         53.50106        50.34577        -0.55352
O         45.67285        48.00052        -1.96244
O         45.43911        62.97800        -1.42071
O         47.98119        49.43842        -1.83795
O         50.41076        65.47672         1.04373
O         29.18165        65.47796        -2.06095
O         39.74775        46.02320        -2.10134
O         33.65122        61.25590        -3.58896
O         64.14153        67.55813         1.46723
O         40.78172        71.76317         0.96386
O         42.29856        57.82262         2.00907
O         53.28781        71.80344         0.91540
O         48.67607        60.40599        -1.54329
H         49.40982        59.82490        -1.83470
O         61.68706        72.03441        -2.96259
H         61.76248        71.09700        -3.25608
O         29.99988        67.28878         1.58854
H         29.37913        67.47421         2.32667
O         43.66023        54.64148         2.24058
H         44.42875        55.08200         2.67598
O         38.12849        61.73619        -2.94521
H         39.11209        61.73342        -3.03018
O         60.21746        66.34201         1.91970
H         59.82837        65.70860         2.56756
O         53.92939        67.67549        -2.30133
H         53.98436        66.72390        -2.53431
O         66.87724        67.28079        -1.05270
H         66.38335        67.70480        -1.78449
O         44.30163        48.04850         1.37370
H         43.57039        47.66112         1.90066
O         61.72913        68.95044        -2.69504
H         60.94003        68.57669        -3.15047
O         49.31027        46.19416        -1.69803
H         48.76585        46.80899        -2.23638
O         50.98750        56.39760         3.05913
H         50.21714        55.80222         3.23549
O         42.12166        55.60049        -1.67275
H         41.70187        55.04183        -2.40073
O         37.27895        56.00855        -3.21679
H         36.89108        56.64926        -3.86182
O         51.80241        52.06566        -1.43713
H         51.21891        52.71413        -1.92806
O         48.56899        54.73621         2.67022
H         47.69627        55.13390         2.91811
O         46.14777        56.22130         2.63384
H         46.04307        57.11975         3.01715
O         30.56001        61.02256        -3.25124
H         30.67136        61.94780        -3.55189
O         46.77610        42.63567        -1.46195
H         45.96066        42.29561        -1.88707
O         52.66728        54.84183        -0.74695
H         51.81156        54.54911        -1.17817
H         24.17014        73.73970         5.97994
H         26.40489        74.04642         4.95550
H         28.65877        74.27406         4.11092
H         31.05373        74.40937         3.37608
H         33.33728        74.61279         2.57321
H         35.61119        75.05346         1.51400
H         37.85422        75.37982         0.65672
H         40.24099        75.50659        -0.00851
H         42.75844        75.51108        -0.47984
H         45.23794        75.44419        -0.62538
H         47.70452        75.40239        -0.73295
H         50.18596        75.37842        -0.74669
H         52.64192        75.35837        -0.79253
H         55.13423        75.36403        -0.80037
H         57.47934        75.31052        -0.18871
H         60.24821        75.17526        -0.22529
H         62.45045        75.17749        -0.49134
H         64.85983        75.24103        -0.37185
H         67.30321        75.29201         0.09406
H         22.88144        68.33570         3.80385
H         21.93431        70.10746         5.26346
H         22.15292        72.33241         6.36287
H         24.91549        64.63269         1.48923
H         23.85348        66.53967         2.50400
H         27.09408        60.55944        -0.26185
H         26.02703        62.65961         0.72804
H         29.51647        56.56733        -1.56759
H         28.30339        58.61386        -1.26303
H         31.92820        52.28663        -1.93119
H         30.69862        54.45227        -1.92875
H         34.37197        47.96807        -1.77268
H         33.15585        50.12758        -1.87414
H         36.78450        43.61493        -1.02364
H         35.55092        45.79253        -1.39741
H         39.31580        39.40226        -0.09836
H         38.12509        41.41004        -0.73657
H         41.78533        35.05300         0.31078
H         40.53285        37.20572        -0.08447
H         45.12883        31.77830         1.22537
H         43.00878        32.98626         0.75390
H         47.26353        33.00929         1.52031
H         48.51142        35.14501         1.55918
H         49.78446        37.27374         1.35262
H         51.04170        39.48194         1.13828
H         52.23322        41.56320         0.78144
H         53.49023        43.54614         0.34979
H         54.85772        46.01261         0.41967
H         55.90114        48.00651         1.24414
H         57.09678        50.10672         1.82024
H         58.30033        52.35916         1.86681
H         59.54837        54.44062         1.86126
H         60.79331        56.55189         1.83894
H         62.03781        58.53531         2.07765
H         63.40532        61.05894         1.92814
H         64.65370        62.90460         0.95959
H         65.90531        64.98109         0.34388
H         67.02094        67.38350         0.99779
H         68.27195        69.42715         0.62854
H         69.44391        71.60111         0.80251
H         69.41395        74.08775         0.64164
