         651
 CSIRO Nanostructure Databank - Neutral Graphene Oxide Data Set
C          7.00188        31.98928        -2.53698
C          6.85461        33.27230        -2.12864
C          9.63292        27.73008        -2.19023
C          9.52058        29.11595        -2.29543
C          8.29187        29.84955        -2.57831
C          9.21273        31.81781        -1.38871
C          8.14258        31.15735        -2.17908
C          9.05237        33.22002        -0.89253
C          7.70080        33.92479        -1.04950
C          8.95180        36.08065        -0.62957
C          7.86253        35.41572        -1.17029
C          8.97344        37.50519        -0.55158
C         11.11623        23.60187         0.13730
C         11.09021        25.02857        -0.00984
C         10.44609        25.67535        -1.10448
C         11.64258        27.74677        -0.62168
C         10.62202        27.04736        -1.38527
C         12.17723        29.01169        -0.93790
C         10.65502        29.94857        -2.00314
C         11.67921        31.89903        -0.89698
C         10.56499        31.22546        -1.48709
C         11.58966        33.39272        -1.00464
C         10.28116        34.02682        -0.67483
C         11.29797        36.07051         0.33105
C         10.18266        35.35402        -0.28003
C         11.28748        37.47087         0.32806
C         10.10593        38.20203        -0.09461
C         11.17187        40.31215         0.61366
C         10.09780        39.60926         0.01628
C         11.17161        41.71571         0.66109
C         13.35397        19.38633         0.07504
C         13.21021        20.61199         0.74365
C         12.11358        21.44761         0.47493
C         13.14560        23.34697         1.67368
C         12.06721        22.82463         0.83879
C         13.16161        24.62049         2.18691
C         11.72401        25.87127         0.93540
C         12.97864        27.95728         1.42386
C         12.07406        27.19439         0.61763
C         13.53308        29.18046         1.09134
C         12.91915        29.85596        -0.05853
C         13.70813        32.13079         0.50484
C         12.76187        31.29244        -0.23875
C         13.58826        33.23701         1.29933
C         12.35132        34.02857         1.31754
C         13.80977        35.97972         0.85171
C         12.41720        35.35567         0.93821
C         13.71696        37.49957         1.01132
C         12.40756        38.20502         0.86284
C         13.30097        40.27984         1.99485
C         12.31820        39.56370         1.09503
C         13.37960        41.76120         1.73642
C         12.27130        42.46503         1.20926
C         13.22189        44.69473         2.02827
C         12.16893        43.87229         1.32619
C         13.21918        46.05688         1.40921
C         15.93201        15.73488        -2.07151
C         15.87128        16.86121        -1.05192
C         14.69429        17.50601        -0.82143
C         15.70426        19.15269         0.72945
C         14.57680        18.65609         0.06113
C         15.61807        20.36910         1.55518
C         14.29122        21.06878         1.64952
C         15.59855        23.14543         2.39883
C         14.23338        22.46253         2.26050
C         15.62769        24.51670         2.68105
C         14.39357        25.27783         2.58086
C         15.68723        27.39450         2.70300
C         14.45969        26.65665         2.61942
C         15.69563        28.78501         2.64056
C         14.55785        29.71228         2.13068
C         15.97662        31.71586         2.56680
C         15.23076        30.99363         1.69707
C         15.93051        33.19429         2.64213
C         14.72995        33.90714         2.02132
C         15.97106        36.02353         2.28746
C         14.84585        35.35120         1.79774
C         15.99598        37.46138         2.22920
C         14.83193        38.20702         1.70014
C         15.80588        40.31844         2.39793
C         14.66094        39.62392         2.07157
C         15.80625        41.79950         2.41370
C         14.47268        42.52554         2.43809
C         15.59952        44.42624         1.17404
C         14.54159        43.94455         1.89689
C         15.43490        45.69476         0.40539
C         14.29137        46.58227         0.71309
C         15.51730        48.51950        -0.25292
C         14.32983        47.92041         0.24272
C         15.58144        49.96325        -0.42863
C         18.93116        12.76042        -4.69627
C         18.78979        13.68073        -3.67926
C         17.51503        14.34808        -3.42489
C         18.48377        15.70852        -1.62051
C         17.32641        15.24100        -2.41656
C         18.37136        16.94879        -0.83474
C         17.06572        17.21231        -0.25335
C         18.19850        19.08796         1.17823
C         16.96344        18.42093         0.73331
C         18.09740        20.24433         2.15964
C         16.85316        21.08374         1.95909
C         18.01508        22.87178         3.26644
C         16.81885        22.38183         2.43097
C         18.03490        24.46303         3.57636
C         16.84234        25.21312         3.01441
C         18.11980        27.31043         3.24126
C         16.88716        26.61402         2.99334
C         18.10089        28.70110         3.46236
C         16.83147        29.45197         3.33958
C         18.16452        31.64751         3.70770
C         16.88061        30.96978         3.45146
C         18.25464        33.16150         3.68569
C         17.13629        33.94383         3.04495
C         18.32745        36.13036         3.15995
C         17.13646        35.33203         2.87636
C         18.35119        37.50307         2.95332
C         17.12727        38.19260         2.60290
C         18.25791        40.34553         2.23819
C         17.06559        39.63137         2.50047
C         18.21615        41.61243         1.65883
C         17.03128        42.45714         1.82594
C         17.96471        44.23025         0.37838
C         16.89602        43.73831         1.09121
C         17.90407        45.51549        -0.35131
C         16.63832        46.31109        -0.28837
C         18.00169        48.50925        -0.58402
C         16.68794        47.76400        -0.43696
C         17.79942        49.70858        -1.52655
C         16.69228        50.58762        -0.93676
C         17.97857        52.69145        -1.14431
C         16.79997        52.02209        -0.90432
C         18.11080        54.11887        -0.99807
C         21.98573         9.73815        -7.27561
C         21.68694        10.42203        -6.14022
C         20.31331        11.05028        -6.01148
C         21.26062        12.17467        -3.80014
C         20.09916        11.87382        -4.74769
C         21.15595        13.38787        -2.98126
C         19.93966        14.02759        -2.87411
C         21.10088        15.93374        -1.68739
C         19.82468        15.12842        -1.88531
C         20.96869        17.07022        -0.67298
C         19.54431        17.61801        -0.32291
C         20.65028        19.14007         1.30818
C         19.42266        18.59080         0.78582
C         20.59824        20.38690         2.00020
C         19.36630        21.06195         2.22206
C         20.57237        23.02456         3.03068
C         19.34903        22.35903         2.74910
C         20.62111        24.43457         3.60033
C         19.34404        25.19152         3.34018
C         20.60490        27.35455         3.37038
C         19.36644        26.58922         3.32197
C         20.57198        28.74742         3.59057
C         19.28788        29.39698         3.79470
C         21.08296        31.87436         3.99069
C         19.16165        30.79742         4.15194
C         20.91982        33.26667         3.66943
C         19.59349        33.93423         3.81140
C         20.89637        36.14681         3.23139
C         19.58647        35.43373         3.55327
C         20.88978        37.56290         2.79814
C         19.61744        38.32904         3.19459
C         20.77548        40.31068         1.89055
C         19.56298        39.70728         2.51953
C         20.66648        41.48304         0.99342
C         19.34409        42.11061         0.86449
C         20.50311        44.14996        -0.10947
C         19.22405        43.45114         0.18683
C         20.47184        45.49604        -0.43389
C         19.19761        46.19489        -0.71388
C         20.39594        48.29050        -1.25155
C         19.22321        47.66903        -0.90808
C         20.38588        49.61786        -1.98491
C         19.11096        50.45996        -1.80390
C         20.48566        52.61971        -1.49457
C         19.17264        51.94780        -1.61533
C         20.54922        53.96099        -1.22523
C         19.33335        54.73919        -1.06082
C         20.65132        56.84380        -1.62521
C         19.45952        56.23919        -0.89560
C         20.65943        58.14217        -1.97692
C         24.79280         7.74375        -8.84561
C         23.51490         8.34447        -8.63499
C         24.28106         9.19409        -6.46796
C         23.25037         9.05450        -7.48124
C         24.03022         9.95456        -5.34888
C         22.63335        10.37197        -4.95432
C         23.67425        12.03240        -3.32579
C         22.59956        11.60927        -4.06906
C         23.56670        13.10452        -2.34854
C         22.32833        13.86299        -2.24721
C         23.51376        15.59726        -0.87730
C         22.27024        15.00323        -1.47505
C         23.24575        16.56110         0.27876
C         22.03524        17.33573         0.28137
C         23.01890        18.91702         1.91563
C         21.88651        18.45494         1.16178
C         22.99547        20.18929         2.48072
C         21.80582        20.98258         2.44195
C         23.05803        23.02062         3.03878
C         21.78326        22.32925         2.91011
C         23.07009        24.47624         2.96258
C         21.86476        25.18844         3.15062
C         23.04426        27.31723         2.86789
C         21.85668        26.63141         3.12812
C         23.05292        28.77913         2.74778
C         21.79683        29.54184         3.22315
C         23.11398        31.61292         2.68415
C         21.97936        31.00756         3.40718
C         23.14350        33.11088         2.58471
C         21.99609        33.91746         3.04907
C         23.21869        35.93821         2.34304
C         22.06319        35.32439         2.86561
C         23.25654        37.34798         2.08807
C         22.05124        38.14531         2.34045
C         23.23867        40.16393         1.22306
C         22.07924        39.58563         1.96211
C         22.91862        41.07591         0.03886
C         21.75316        42.00949         0.33783
C         22.96098        44.01543        -0.42316
C         21.73881        43.39114        -0.10994
C         23.01164        45.47889        -0.56068
C         21.70597        46.25840        -0.58903
C         22.84103        48.21692        -1.62411
C         21.67082        47.59654        -1.23082
C         22.87293        49.65551        -1.83952
C         21.68889        50.37334        -1.82246
C         23.02440        52.52568        -1.75252
C         21.69390        51.84655        -1.86995
C         23.11903        53.90025        -1.16077
C         21.83873        54.73285        -1.01228
C         23.16878        56.74243        -1.70911
C         21.87897        55.98085        -1.90634
C         23.12296        58.23781        -1.75863
C         21.91376        58.73398        -2.57246
C         23.12198        60.88372        -2.76529
C         21.93101        60.23807        -2.65087
C         25.80416         7.88732        -7.93394
C         26.63886         8.81028        -5.81212
C         25.60530         8.62593        -6.71048
C         26.45430         9.56401        -4.57328
C         25.07564        10.18579        -4.34514
C         26.06778        11.62227        -2.56174
C         25.06502        11.54720        -3.67594
C         25.79697        12.49775        -1.43154
C         24.63112        13.41304        -1.49590
C         25.63157        14.86138         0.24066
C         24.58945        14.55679        -0.62818
C         25.46299        15.97945         1.20111
C         24.25654        16.83717         1.18474
C         25.39893        18.51562         2.88127
C         24.16432        17.99716         2.11617
C         25.46549        20.00836         3.25766
C         24.20026        20.81031         3.07820
C         25.47716        22.96953         2.61750
C         24.22668        22.29717         2.96840
C         25.53098        24.44071         2.60414
C         24.30467        25.14595         2.70359
C         25.55584        27.32803         2.25733
C         24.21087        26.58208         2.24863
C         25.63085        28.74658         2.65797
C         24.37405        29.48118         2.75141
C         25.63276        31.60126         2.97059
C         24.38604        30.85199         2.74196
C         25.66725        33.08756         2.69269
C         24.42072        33.80157         2.40512
C         25.66435        35.78475         1.76103
C         24.43652        35.16737         2.19542
C         25.60155        37.10333         1.30944
C         24.43009        37.89537         1.53200
C         25.60917        39.86391         0.34473
C         24.48409        39.33140         1.17321
C         25.46587        40.97995        -0.67526
C         24.09271        41.78735        -0.75180
C         25.37269        43.98435        -0.81707
C         24.19573        43.28965        -0.53254
C         25.36606        45.37348        -1.20747
C         24.18986        46.09722        -1.17455
C         25.38703        48.15050        -1.94795
C         24.07766        47.39716        -1.92642
C         25.40507        49.55209        -2.09884
C         24.17328        50.32822        -1.93628
C         25.48152        52.44578        -2.09664
C         24.24511        51.69638        -1.79018
C         25.74378        53.80017        -1.46374
C         24.45220        54.59327        -1.17373
C         25.62796        56.70376        -1.99771
C         24.45805        56.12752        -1.20626
C         25.58223        58.06231        -2.34575
C         24.40777        58.84836        -2.28956
C         24.36406        60.16031        -2.73399
C         27.57004        10.15143        -3.83966
C         28.43827        11.39720        -1.89751
C         27.34087        11.01466        -2.73979
C         28.32049        12.37309        -0.90133
C         26.98238        12.88559        -0.52928
C         28.03699        14.62701         0.86579
C         26.88594        14.14083         0.24094
C         28.01580        15.88127         1.58197
C         26.70006        16.51579         1.85579
C         27.85741        18.15135         3.16552
C         26.67532        17.80159         2.59625
C         27.96428        20.24973         3.63393
C         26.75304        20.79259         3.22148
C         28.01388        22.95934         2.84601
C         26.78818        22.17060         2.69164
C         28.01938        24.35147         2.66322
C         26.79174        25.07396         2.47701
C         28.11607        27.26108         2.54549
C         26.85368        26.53967         2.28842
C         28.12340        28.64857         2.66277
C         26.87789        29.37422         2.77320
C         28.22563        31.60045         3.07591
C         26.92627        30.83005         3.08572
C         28.20759        33.07370         2.72196
C         26.93974        33.74811         2.37298
C         28.13123        35.62266         1.30699
C         26.91129        35.01775         1.79670
C         28.06908        36.96302         0.75904
C         26.72145        37.56272         0.40662
C         27.96820        39.58679        -0.61624
C         26.75314        39.01669         0.06987
C         28.00401        41.10828        -0.68394
C         26.71894        41.82349        -0.52485
C         27.90069        43.94188        -1.22108
C         26.68277        43.31567        -0.68894
C         27.79300        45.26221        -1.72792
C         26.59521        45.99983        -1.67111
C         27.83670        48.07168        -2.26836
C         26.59022        47.40239        -1.99194
C         27.85268        49.49242        -2.42135
C         26.64446        50.20981        -2.34584
C         28.00374        52.37062        -2.53739
C         26.69591        51.67180        -2.49893
C         27.96756        53.80113        -2.58548
C         26.83285        54.53370        -2.21505
C         26.73488        55.92913        -2.38680
C         29.45058        12.92183        -0.26735
C         30.47450        14.48184         1.31467
C         29.34684        14.00257         0.65408
C         30.39980        15.59976         2.31307
C         29.16886        16.43047         2.08739
C         30.40078        18.56809         2.86290
C         29.12706        17.89858         2.40557
C         30.44131        19.98403         3.10658
C         29.24518        20.77717         3.32289
C         30.54427        22.96547         3.09403
C         29.24372        22.25416         3.25052
C         30.51904        24.35777         2.60365
C         29.28929        25.08254         2.63394
C         30.59827        27.16526         2.38059
C         29.33794        26.49128         2.53190
C         30.67061        28.58624         2.39267
C         29.44979        29.33781         2.79863
C         30.86356        31.59315         2.74196
C         29.53915        30.83391         2.96701
C         30.72794        32.92204         2.00301
C         29.48684        33.70626         2.16811
C         30.55995        35.52135         0.84525
C         29.36414        34.95872         1.40214
C         30.47248        36.87276         0.28184
C         29.20928        37.62388         0.40287
C         30.46463        39.78376        -0.10779
C         29.15524        39.12270         0.22826
C         30.51204        41.30336        -0.23149
C         29.17064        41.84047        -0.72955
C         30.33088        43.79752        -1.69100
C         29.12919        43.23068        -1.16949
C         30.26815        45.09289        -2.38851
C         28.96698        45.87473        -2.37003
C         30.26077        47.98693        -2.75532
C         29.02387        47.33657        -2.46646
C         30.27196        49.41134        -2.83550
C         29.11078        50.16915        -2.66499
C         29.15018        51.60843        -2.68971
C         31.62012        16.46134         2.26945
C         32.83769        18.54915         2.49485
C         31.60598        17.84011         2.56030
C         32.88361        19.94515         2.61576
C         31.70139        20.66599         2.97017
C         33.01740        22.81071         2.46471
C         31.79286        22.14168         3.02416
C         32.85413        24.13840         1.74615
C         31.70990        24.98533         2.23074
C         33.04481        27.05386         1.96122
C         31.78026        26.39944         2.14522
C         33.09019        28.45810         2.01088
C         31.90424        29.24314         2.20250
C         33.10893        31.35901         1.74990
C         31.97315        30.71561         2.15452
C         33.19571        32.87859         1.69183
C         31.84451        33.54065         1.49076
C         33.04878        35.60728         0.57334
C         31.80707        34.89604         0.95238
C         33.07089        37.00686         0.32950
C         31.77023        37.66638         0.17027
C         33.34896        40.04697        -0.35137
C         31.56312        39.11262         0.32593
C         32.96543        41.18943        -1.13237
C         31.71785        41.84373        -1.02609
C         32.71957        43.71027        -2.34200
C         31.57239        43.10858        -1.67388
C         32.69627        45.08423        -2.70849
C         31.51863        45.84441        -2.63784
C         31.46038        47.22936        -2.87816
C         34.09455        20.61334         2.20635
C         35.26726        22.64623         1.42517
C         34.15125        21.97906         2.00073
C         35.32638        24.04350         1.31840
C         34.16308        24.86792         1.65310
C         35.64289        26.82545         1.75562
C         34.23886        26.23492         1.73781
C         35.65237        28.34820         1.57855
C         34.40228        29.14552         1.87649
C         35.49930        31.21264         0.78547
C         34.37752        30.61968         1.56928
C         35.29316        32.54496         0.14241
C         34.15772        33.37992         0.62171
C         35.46236        35.42162        -0.12400
C         34.23166        34.84264         0.43952
C         35.53509        36.91454        -0.36554
C         34.39119        37.81749         0.15062
C         35.17183        39.46133        -1.76873
C         34.26151        39.08504        -0.71078
C         35.04448        40.74172        -2.36440
C         33.97233        41.62265        -2.07426
C         33.85742        42.92345        -2.60965
C         36.47621        24.68498         0.79658
C         37.67159        26.74730         0.25181
C         36.59926        26.08245         0.84405
C         37.69787        28.17081         0.13970
C         36.69728        28.95256         0.71942
C         37.81115        31.04003        -0.15490
C         36.48377        30.30876         0.08018
C         37.60883        32.39135        -0.81015
C         36.47897        33.16865        -0.49823
C         37.52652        35.12769        -1.52361
C         36.45789        34.54489        -0.78506
C         37.44473        36.50040        -1.91408
C         36.42440        37.35220        -1.47962
C         36.23751        38.59969        -2.11059
C         38.71525        28.79185        -0.70192
C         39.80991        30.77753        -1.69539
C         38.78271        30.14391        -0.89783
C         39.77692        32.11019        -1.97543
C         38.66828        32.95940        -1.56506
C         38.59429        34.30359        -1.95516
O         23.71676        41.77943        -2.11158
O         32.83082        22.74407         3.89595
O         18.95231        51.33805        -2.96695
O         31.07740        37.11092        -1.02993
O         20.43671        18.25127        -1.36486
O         15.59581        45.58726        -1.04221
O         11.94823        29.45820        -2.25385
O         26.08761        22.35918         1.41704
O         22.80539        32.25062         1.39470
O         14.66299        20.10115         2.67978
O         25.44990         9.03002        -3.58124
O         36.24325        36.34683         0.77813
O         23.89819        54.01285         0.06590
O         22.08067        29.28299         1.78157
O         35.40113        28.91911         2.92413
O         20.38970        36.03885         4.60966
O         16.88932        17.02484         1.18339
O         24.39328        17.73839         3.55636
O         20.19799        31.32840         4.91394
O         29.38422        45.12481        -3.56938
O          8.90296        32.08533         0.05411
O         29.91406        22.88315         4.42720
O         22.34433        52.46760        -3.05295
O         18.40414        45.46743        -1.72902
O         11.98551        25.38953         2.21358
O         13.28519        27.41226         2.68521
O         27.91187        18.99912         4.26091
O         16.37874        30.16897         4.56395
O         20.37168        40.68014         3.27721
O         17.84499        22.19438         4.49532
O         16.71953        42.49297         3.30228
O         27.58679        31.23090         4.32831
O         24.61559        20.32266         4.40899
O         29.67712        29.95500         4.12781
O         32.62944        39.85816         0.83431
O         14.74429        33.58185         3.45698
O         25.79577        52.28599        -3.51127
O         14.98000        31.54811         0.44992
O         26.27591        27.03868         1.00736
O         26.02422        11.87024        -0.11736
O         22.53879        46.23476         0.63067
O         25.83413        15.54373         2.56092
O         19.11341        14.66845        -0.69473
O         18.97022        42.23326        -0.58291
O         18.75193        33.67159         4.96438
O         23.02267        40.53135         2.60734
O         25.52703        32.54844         4.08164
O         12.50826        34.02403        -1.51192
O         29.07995        33.86532         3.58037
O         25.55892        40.11539         1.80212
O         20.26025        11.12117        -3.49560
O         35.53140        31.29058         2.21780
O         14.74793        38.13838         0.17129
O         34.06053        32.63802        -0.66021
O         26.79364        42.68837         0.65010
O         20.03827        11.87362        -7.15674
H         20.82849        12.41662        -7.35341
O         14.11682        42.54354         3.86978
H         14.94856        42.76799         4.35006
O         22.15731         9.28315        -4.09680
H         21.32769         9.60530        -3.66316
O          6.94392        33.73214         0.18343
H          7.29188        32.90136         0.58859
O         19.67956        38.57043         4.61350
H         20.26215        39.35402         4.74443
O         22.92953        58.71231        -0.39384
H         23.60878        58.25112         0.15616
O         33.68267        33.34605         2.96811
H         33.06547        33.00197         3.65761
O         13.77086        30.09138         3.29264
H         13.47739        29.26016         3.72907
O         21.79166        55.25110         0.34058
H         22.03291        54.52453         0.95455
O         21.83402        55.53049        -3.28323
H         21.93645        56.33954        -3.84570
O         22.38373        40.11471        -0.90846
H         22.58339        40.54144        -1.79687
O         14.34215        35.69201        -0.46350
H         14.82591        36.49858        -0.76072
O         35.87602        30.04283        -1.21493
H         36.53668        29.57446        -1.76948
O         13.83628        22.29716         3.65486
H         14.26627        21.46586         3.97031
O         28.04708        39.02958        -1.95242
H         27.26632        39.40643        -2.43338
O         36.17214        26.53655         3.07937
H         35.91130        27.29154         3.65892
O         20.72552        24.32220         5.05765
H         19.80248        24.22206         5.40190
O         30.61865        41.84978         1.12334
H         31.44603        41.47862         1.50885
O         31.35085        31.96408         4.06366
H         31.03883        31.27024         4.69088
O         18.24941        56.89319        -1.27902
H         18.08489        56.70351        -2.22528
O         12.88284        44.87394         3.43160
H         13.02143        44.00446         3.88054
O         25.60883        40.28138        -1.93985
H         24.88424        40.70657        -2.51095
O         22.08768        58.21493        -3.93143
H         21.44228        58.66894        -4.51299
O         26.41100        36.94695        -0.91019
H         27.05177        37.33341        -1.55840
O         21.39253        16.57049        -2.97737
H         20.97976        17.46950        -2.93292
O         32.48528        23.74061         0.37686
H         32.44932        24.55156        -0.17316
O         38.38193        31.30068         1.15128
H         39.22109        31.79065         1.02832
O         34.75305        38.27261         1.47307
H         35.34024        37.58031         1.86123
O         23.86003        46.99321        -3.33292
H         24.63620        46.46452        -3.61787
O         15.21398        16.08972        -3.26035
H         15.67277        16.84038        -3.68915
O         25.53420        12.46217        -4.73641
H         25.49456        13.37628        -4.38220
O         28.86201        39.61321         1.57746
H         29.11651        40.56655         1.63214
O         17.92343        24.54589         5.02596
H         17.71411        23.59498         5.31250
O         28.86014        18.55970         1.09691
H         29.65629        18.43322         0.53666
O         17.92876        19.69988         3.50017
H         17.87689        20.50870         4.10169
O         30.28258        15.02848         3.67197
H         29.43940        14.52857         3.71462
O         23.80668        26.47804         0.83885
H         24.64390        26.43754         0.31644
O         12.73247        40.12909         3.35538
H         13.11349        40.85802         3.90306
O         26.32476        53.47657        -0.16731
H         26.34349        54.29538         0.37110
O         24.62242        56.58115         0.18094
H         24.01552        56.01149         0.71196
O         20.37495        49.19953        -3.38244
H         20.23846        50.01467        -3.91652
O         11.19089        33.41060         1.63660
H         11.35625        32.49279         1.93002
O         17.33166        49.19293        -2.78068
H         17.50435        49.87828        -3.46255
O         18.30189        49.10755         0.72288
H         18.42988        48.38925         1.37735
O         24.07097        16.45385        -1.94944
H         23.30821        16.74889        -2.50613
H          6.26063        31.55362        -3.22537
H          5.97139        33.83642        -2.46641
H          8.76632        27.12080        -2.49494
H          7.47048        29.33681        -3.10196
H          7.00286        36.00027        -1.53266
H          8.06525        38.06614        -0.81713
H         10.46701        23.04168        -0.55592
H          9.76104        25.08655        -1.73341
H          9.22309        40.17159        -0.34404
H         10.30529        42.26515         0.26391
H         12.52444        19.02892        -0.55363
H         11.33088        21.06480        -0.19845
H         11.29452        44.37980         0.89185
H         12.33238        46.68237         1.59359
H         15.37697        14.86276        -1.62683
H         13.80389        17.21575        -1.39960
H         13.44688        48.55704         0.40380
H         14.72993        50.56507        -0.07457
H         18.13583        12.62344        -5.44339
H         16.64980        14.03351        -4.02832
H         15.92382        52.59219        -0.55654
H         17.20667        54.72009        -0.81875
H         21.24848         9.70731        -8.09374
H         19.54023        10.23504        -6.01998
H         19.60238        56.45242         0.20030
H         19.78006        58.77753        -1.78472
H         24.96431         7.17538        -9.77060
H         22.74065         8.24764        -9.40964
H         23.15062        61.97271        -2.91851
H         20.98078        60.79257        -2.68341
H         26.78966         7.43638        -8.12008
H         27.65169         8.46385        -6.06880
H         26.49350        58.52127        -2.76371
H         25.28218        60.65365        -3.08685
H         28.59875         9.84463        -4.08217
H         29.43293        10.98369        -2.12073
H         28.86158        54.34186        -2.93316
H         27.52611        56.43314        -2.96451
H         30.44643        12.51903        -0.50454
H         31.43985        13.97624         1.16027
H         31.22718        49.92440        -3.02252
H         30.12700        52.10320        -2.80058
H         32.58389        15.99498         2.01399
H         33.75312        18.00093         2.22794
H         33.62878        45.55596        -3.05321
H         32.39522        47.76425        -3.10472
H         34.94999        19.98542         1.91454
H         36.14185        22.05139         1.12122
H         35.80662        41.05852        -3.09186
H         34.66744        43.33431        -3.23002
H         37.26920        24.08032         0.33087
H         38.44284        26.16345        -0.27348
H         38.16295        36.87517        -2.65894
H         36.93731        38.89937        -2.90468
H         39.45995        28.13218        -1.17426
H         40.62380        30.15058        -2.08993
H         40.57489        32.56350        -2.58160
H         39.40295        34.74112        -2.55896
