         470
 CSIRO Nanostructure Databank - Neutral Graphene Oxide Data Set
C         37.56944        50.69279        -1.14179
C         36.36491        51.33180        -0.89283
C         37.44733        52.77159         0.72465
C         36.30542        52.37823         0.04349
C         40.05019        49.11774        -1.23845
C         40.02662        50.46238        -0.72551
C         38.74697        51.08609        -0.46313
C         39.89602        52.50089         1.20772
C         38.68883        52.13451         0.48722
C         39.77812        53.24890         2.39801
C         42.50023        49.07641        -1.30348
C         41.20235        48.40187        -1.32789
C         42.49525        50.58242        -0.81319
C         41.21445        51.08309        -0.29895
C         42.38201        52.55037         1.40471
C         41.18441        52.08244         0.74595
C         42.18454        53.30333         2.57062
C         40.91037        53.59931         3.09864
C         44.89046        46.10587        -0.90433
C         43.70965        46.86265        -0.85642
C         44.97552        48.76876        -1.51368
C         43.71942        48.21855        -1.22475
C         45.02932        50.82803        -0.85424
C         43.73038        51.36645        -0.40949
C         45.10590        52.75154         1.28018
C         43.73256        52.34065         0.74635
C         45.25605        53.91140         2.07334
C         44.22596        54.53649         2.83535
C         45.46020        56.62868         3.02935
C         44.32149        55.84901         3.29521
C         47.43092        44.45387        -1.14686
C         47.37889        45.90736        -1.45381
C         46.14500        46.69133        -1.13538
C         47.41087        48.89475        -1.08527
C         46.19608        48.11178        -1.29105
C         47.40975        50.22271        -0.54628
C         46.22309        51.01567        -0.20391
C         47.58626        52.71057         0.90516
C         46.29982        52.14626         0.72757
C         47.80814        53.91581         1.71210
C         46.57438        54.56682         2.29315
C         47.88117        56.71354         2.43745
C         46.63083        56.01973         2.56705
C         47.89421        58.15557         2.52673
C         49.84899        43.87872        -1.48118
C         48.47438        43.57513        -1.13742
C         49.96233        46.11008        -1.63694
C         48.64099        46.76189        -1.61840
C         49.83815        48.68986        -0.66126
C         48.63307        48.15572        -1.12229
C         49.86816        50.07422        -0.35850
C         48.66279        50.80918        -0.22686
C         50.00783        52.79896         0.36122
C         48.74694        52.13385         0.31704
C         50.14678        54.12679         0.88162
C         49.03341        54.72318         1.52598
C         50.37119        56.75441         2.09630
C         49.06989        56.04387         2.03680
C         50.32925        58.28678         2.18002
C         48.99804        58.90381         2.27971
C         52.28464        41.46574        -0.09647
C         51.07729        42.06146        -0.31822
C         52.26235        44.18134        -0.81912
C         51.00639        43.36265        -0.92574
C         52.28123        45.68846        -0.78995
C         51.06205        46.53001        -0.98405
C         52.40213        48.56646        -0.18637
C         51.00473        47.82163        -0.20863
C         52.29581        49.97307        -0.75436
C         51.11545        50.75124        -0.33873
C         52.42274        52.83933        -0.30569
C         51.17710        52.12421        -0.10936
C         52.50472        54.22349         0.12864
C         51.41016        54.80683         0.77608
C         52.82522        56.87932         1.28355
C         51.64422        55.98231         1.69762
C         52.75086        58.42425         1.38573
C         51.46883        59.08085         1.66984
C         52.45783        61.22142         1.01516
C         51.35691        60.43990         1.40909
C         54.82400        39.99966        -0.08962
C         54.78170        41.33886        -0.40871
C         53.53896        42.10370        -0.45489
C         54.80659        44.15823        -1.12311
C         53.54591        43.43055        -0.85376
C         54.81024        45.71254        -1.20740
C         53.56118        46.44431        -0.93751
C         54.83744        48.55309        -0.87623
C         53.58167        47.80974        -0.78128
C         54.84448        49.98639        -0.99349
C         53.55193        50.72203        -1.06775
C         54.73039        52.93965        -1.18731
C         53.52656        52.18231        -0.82665
C         54.76894        54.37713        -0.84140
C         53.74000        54.95804        -0.10326
C         54.92042        57.14118        -0.00314
C         53.85736        56.33893         0.37149
C         54.96243        58.56696         0.25258
C         53.81223        59.21941         0.75115
C         54.89317        61.42370         0.44448
C         53.70638        60.63845         0.71937
C         54.92090        62.82624         0.62887
C         57.26517        39.92657         0.07107
C         56.05197        39.29684         0.12113
C         57.34307        41.32176        -0.40509
C         56.04848        42.04686        -0.67651
C         57.28020        44.24024        -0.67691
C         56.07050        43.51987        -0.77252
C         57.26116        45.69157        -0.73994
C         56.08428        46.40148        -0.90705
C         57.29919        48.57264        -0.77446
C         56.05709        47.85149        -0.83561
C         57.29715        49.99915        -0.90894
C         56.04479        50.68997        -1.08328
C         57.33010        52.89121        -1.37660
C         56.02211        52.14797        -1.39055
C         57.30234        54.39623        -1.31870
C         55.96480        55.15077        -1.20879
C         57.30477        57.25961        -0.72936
C         55.94371        56.65792        -1.00095
C         57.33350        58.65061        -0.47209
C         56.10939        59.33648        -0.10154
C         57.31362        61.50981        -0.00015
C         56.10635        60.75515         0.09862
C         57.33009        62.89820         0.24217
C         56.10035        63.54348         0.53144
C         59.81841        37.42227         1.36764
C         58.62774        37.97744         1.03622
C         59.84965        39.94119        -0.01268
C         58.55337        39.20125         0.22758
C         59.84038        41.42046        -0.17668
C         58.53314        42.14406         0.05599
C         59.77030        44.27273        -0.48034
C         58.52414        43.57393        -0.42092
C         59.78701        45.69503        -0.55769
C         58.49812        46.41944        -0.26302
C         59.75070        48.57418        -0.61975
C         58.52265        47.87996        -0.62884
C         59.75430        50.00552        -0.66632
C         58.52917        50.68746        -0.82923
C         59.77661        52.86511        -0.58827
C         58.58138        52.14405        -1.05543
C         59.67578        54.31596        -0.42060
C         58.51957        55.08989        -0.90715
C         59.75111        57.22353        -0.67478
C         58.51271        56.51529        -0.76673
C         59.78274        58.63172        -0.63072
C         58.56513        59.34525        -0.47489
C         59.82769        61.60122        -0.56283
C         58.58987        60.79222        -0.18630
C         59.66325        63.08733        -0.61138
C         58.56586        63.67240         0.07558
C         59.86933        65.74466         0.30035
C         58.69078        65.01965         0.48713
C         62.36710        36.02004         1.77749
C         62.32911        37.35135         1.27938
C         61.08812        38.02561         1.01691
C         62.33596        39.96078         0.13730
C         61.11359        39.30368         0.42937
C         62.27341        41.28974        -0.61058
C         61.01214        42.09896        -0.34353
C         62.22374        44.27810        -0.55684
C         61.01600        43.55491        -0.44973
C         62.21965        45.67715        -0.72565
C         60.99620        46.40610        -0.67938
C         62.19873        48.60047        -0.64924
C         61.00583        47.86850        -0.64757
C         62.21333        50.03029        -0.49770
C         60.99166        50.73235        -0.53533
C         62.23067        52.88013        -0.21416
C         60.97847        52.17810        -0.42584
C         62.25918        54.29392        -0.15886
C         60.98309        55.04823        -0.19394
C         62.30766        57.19155        -0.53261
C         61.01012        56.45948        -0.66735
C         62.24122        58.66258        -0.49947
C         61.05387        59.34666        -0.62193
C         62.40197        61.47363        -1.11558
C         61.04884        60.80881        -0.98608
C         62.55971        62.91740        -1.29057
C         60.66467        63.96766        -1.06774
C         62.22888        65.91988        -0.69755
C         60.89677        65.24644        -0.52948
C         62.35100        67.31883        -0.23171
C         64.79381        35.93743         1.56264
C         63.55386        35.33107         1.90067
C         64.78151        37.28404         1.15322
C         63.56281        37.99776         0.96592
C         64.83704        40.00150         0.15605
C         63.56332        39.32394         0.39490
C         64.83732        41.33141        -0.58881
C         63.53880        42.08118        -0.34301
C         64.79119        44.29920        -0.61960
C         63.51966        43.57394        -0.39282
C         64.78005        45.68952        -0.74329
C         63.49238        46.39044        -0.95235
C         64.74424        48.61806        -0.61743
C         63.48107        47.91718        -0.89960
C         64.71025        50.03739        -0.35640
C         63.46766        50.73848        -0.33353
C         64.68437        52.87235         0.10995
C         63.46534        52.15985        -0.15038
C         64.69384        54.31075         0.20579
C         63.47168        54.99734         0.00760
C         64.77917        57.14113        -0.12938
C         63.44620        56.49614         0.20764
C         64.79983        58.62763        -0.23547
C         63.50332        59.36613        -0.18663
C         64.85773        61.53047        -0.44839
C         63.56376        60.82173        -0.45239
C         64.83717        62.93443        -0.48450
C         63.59916        63.65035        -0.79370
C         64.76278        65.77651        -0.10855
C         63.55375        65.14166        -0.80102
C         64.81390        67.27959        -0.18361
C         63.55479        67.95469        -0.09705
C         67.30073        33.07681         1.75071
C         66.07150        33.80202         1.69619
C         67.34508        35.93375         1.68546
C         66.04152        35.17114         1.61260
C         67.32593        37.17942         0.82931
C         66.04058        37.92638         0.71281
C         67.31357        40.11381         0.49091
C         66.02099        39.38594         0.46341
C         67.30930        41.61931         0.23529
C         66.03798        42.19635        -0.32060
C         67.29537        44.29975        -0.65171
C         66.02885        43.56721        -0.52371
C         67.26343        45.74864        -0.72450
C         65.98967        46.45126        -0.70943
C         67.21236        48.62271        -0.55433
C         65.93946        47.87682        -0.63573
C         67.21298        50.08850        -0.23474
C         65.91227        50.76610        -0.08422
C         67.09980        52.79898         0.79299
C         65.90079        52.13324         0.20973
C         67.08024        54.29787         0.98787
C         65.91760        55.04946         0.47487
C         67.17709        57.21748         0.57513
C         66.00518        56.43957         0.31087
C         67.20231        58.64058         0.38655
C         66.05466        59.37208         0.01149
C         67.27728        61.52317        -0.29065
C         66.05514        60.79600        -0.20157
C         67.27815        62.90746        -0.47508
C         66.06832        63.65217        -0.45577
C         67.27718        65.79600        -0.28052
C         66.07979        65.08787        -0.39022
C         67.29641        67.20927        -0.08267
C         66.05735        67.94506        -0.06051
C         67.31170        69.99135         0.41369
C         66.12780        69.36544         0.12419
C         69.80014        31.47645         1.35634
C         69.79633        32.90598         1.69464
C         68.53522        33.69702         1.63846
C         69.81322        35.80164         1.24232
C         68.60566        35.11970         1.46631
C         69.81269        37.23282         0.91954
C         68.61944        37.88108         0.68203
C         69.85536        39.87928        -0.22440
C         68.60231        39.34817         0.46250
C         69.82227        41.38556        -0.53071
C         68.52055        42.14188        -0.52133
C         69.77688        44.26012        -0.99274
C         68.50468        43.61876        -0.66015
C         69.76228        45.83134        -0.94406
C         68.46813        46.45057        -0.68121
C         69.73411        48.61456        -0.09029
C         68.45554        47.85730        -0.25802
C         69.66985        50.09390         0.01767
C         68.46457        50.72929         0.21362
C         69.63121        52.91860         0.35991
C         68.46014        52.08577         0.87591
C         69.53370        54.43582         0.32087
C         68.42606        54.99529         1.26992
C         69.71640        57.29750         1.06970
C         68.36947        56.54502         1.13721
C         69.75843        58.66390         0.57143
C         68.48454        59.38734         0.53312
C         69.81316        61.40977        -0.49089
C         68.53606        60.83009         0.05069
C         69.82023        62.88886        -0.78694
C         68.51255        63.67677        -0.87927
C         69.79475        65.84880        -0.67821
C         68.58798        65.03100        -0.17676
C         69.80000        67.20476         0.00997
C         68.54798        67.89474         0.13272
C         69.78167        69.93349         0.82833
C         68.54776        69.27654         0.46679
C         69.80630        71.28582         1.26047
C         72.20929        31.51997         0.96608
C         70.96200        30.81636         1.10771
C         72.27597        32.87290         1.07688
C         71.12345        33.65539         1.54565
C         72.25797        35.85753         1.23405
C         71.08246        35.12607         1.31510
C         72.25908        37.25735         1.03480
C         71.07835        37.96049         0.83799
C         72.17245        40.20459         0.64144
C         71.08445        39.37521         0.49941
C         72.16442        41.56653         0.21600
C         71.07489        42.17507        -0.38314
C         72.21498        44.36525        -0.71604
C         71.05770        43.58851        -0.70737
C         72.20354        45.77889        -0.70701
C         71.03185        46.53144        -0.66649
C         72.16244        48.74309        -0.35450
C         71.02460        47.95243        -0.38264
C         72.10441        50.14970        -0.15696
C         70.90879        50.83419         0.01260
C         71.97866        53.08528        -0.35961
C         70.81106        52.29470         0.02894
C         72.04910        54.40056        -0.08304
C         70.90731        55.06253         0.59459
C         72.24025        57.27305         0.76914
C         70.99355        56.50650         1.00214
C         72.26414        58.60326         0.63123
C         71.03424        59.47918         0.71697
C         72.29970        61.52936        -0.15000
C         71.11880        60.60928        -0.34134
C         72.27632        62.86912        -0.32213
C         71.08083        63.65549        -0.58900
C         72.27478        65.79540        -0.23102
C         71.07291        65.03707        -0.48254
C         72.24339        67.11409         0.10943
C         71.00493        67.84143         0.30227
C         72.20375        69.85560         1.18355
C         71.00875        69.20682         0.78221
C         72.19611        71.17383         1.60529
C         70.98852        71.89534         1.64012
O         69.01926        48.01978         1.08855
O         59.23304        39.15115        -1.09516
O         67.38123        49.58938        -1.64181
O         54.82083        44.89184        -2.40521
O         56.89685        41.48738        -1.77277
O         68.51776        60.54125         1.48636
O         52.85683        48.67474         1.14184
O         45.03189        50.07231        -2.02972
O         68.12126        39.91500         1.73429
O         69.77405        45.07328        -2.19393
O         52.66678        50.19641        -2.14449
O         62.97856        65.75477        -1.96765
O         58.21405        52.47051        -2.47282
O         61.70360        60.90182        -2.28682
O         63.29156        60.30847         0.91614
O         66.60698        37.14367        -0.44490
O         61.55141        63.51130        -2.04865
O         43.61712        52.81395        -0.65868
O         59.58443        61.17081         0.83017
O         47.46596        53.75631         3.13792
O         68.92520        57.18557         2.32236
O         43.19912        53.78050         3.38281
O         69.02575        41.55764        -1.76388
O         61.91074        56.62199        -1.81632
O         64.85620        57.76554        -1.44292
O         50.02955        44.92944        -2.39360
O         71.15797        55.44373         1.99282
O         50.61779        57.44572         3.35843
O         42.51608        50.21360        -2.21531
O         52.22809        44.94644         0.48763
O         69.76171        61.88456        -1.88051
O         70.61793        33.25316         2.86406
O         63.53154        42.80614         0.90523
O         47.84129        46.39162        -2.77026
O         63.48893        47.19054        -2.18270
O         66.70800        53.39725         2.07453
O         55.20581        52.54527        -2.52768
O         60.11863        54.79975         0.94148
O         53.33429        57.57091         2.45129
O         56.58162        54.89149        -2.50601
O         68.29834        63.93800        -2.29905
H         68.52570        63.10259        -2.77049
O         52.08584        55.33099         2.92107
H         52.14701        56.04212         3.60036
O         69.66534        66.16813        -2.08215
H         69.23412        65.39884        -2.53212
O         69.88926        39.18539        -1.50075
H         69.42566        39.75737        -2.15673
O         58.40442        46.39505         1.21770
H         57.58469        46.87482         1.46621
O         67.43917        36.44471         3.06098
H         67.59933        35.67906         3.65253
O         64.93298        40.98273        -1.99838
H         64.02959        40.73233        -2.31433
O         69.12039        54.83343        -1.01435
H         69.70271        54.38779        -1.66560
O         62.24942        40.96908        -2.03571
H         61.45190        40.42280        -2.21102
O         64.49292        65.47844         1.31635
H         65.28135        65.74677         1.83467
O         58.36269        42.20814         1.51964
H         59.01519        42.85117         1.87208
O         68.74425        51.84653         2.27801
H         68.55431        52.69754         2.74936
O         67.43239        42.29024         1.53216
H         67.81051        41.63734         2.16853
O         68.80710        64.74586         1.22581
H         68.93902        65.59656         1.69537
O         50.68499        47.49665         1.15684
H         51.48329        47.81333         1.67640
O         63.24086        56.74356         1.62481
H         62.53385        56.15010         1.95586
O         71.33026        59.89991        -1.58722
H         71.13715        60.53911        -2.31115
O         55.50553        57.23167        -2.27652
H         55.93476        56.69311        -2.98165
O         71.04019        60.11040         2.02095
H         70.52107        59.55830         2.64311
O         68.74893        54.65054         2.61650
H         69.53184        55.18884         2.88973
H         37.61192        49.89798        -1.89907
H         35.45887        51.03083        -1.43665
H         37.38025        53.60774         1.43391
H         35.35222        52.89240         0.22926
H         39.09077        48.59862        -1.37055
H         38.79080        53.52104         2.79137
H         41.16498        47.31899        -1.51019
H         40.84832        54.15948         4.04009
H         44.81135        45.02164        -0.74675
H         42.76583        46.35708        -0.61008
H         45.44567        57.68865         3.31338
H         43.48499        56.27593         3.86302
H         46.48150        44.04724        -0.76322
H         46.93989        58.67936         2.67065
H         48.27194        42.57058        -0.73217
H         48.90027        59.99591         2.22258
H         52.30273        40.44854         0.31500
H         50.14802        41.50215        -0.13401
H         52.32047        62.30745         0.93371
H         50.40539        60.95760         1.58760
H         53.89504        39.43500         0.06214
H         53.99705        63.36273         0.88439
H         55.99391        38.23251         0.39020
H         56.07760        64.62997         0.69049
H         59.81769        36.50276         1.96801
H         57.69398        37.53131         1.40717
H         59.96535        66.73120         0.77422
H         57.87889        65.48544         1.06180
H         61.43398        35.50541         2.04062
H         61.42967        67.90529        -0.10072
H         63.53349        34.29626         2.26851
H         63.54048        69.03299         0.11679
H         67.24355        31.98627         1.86691
H         65.13818        33.22124         1.70248
H         67.30102        71.07510         0.58861
H         65.21068        69.96678         0.07830
H         68.84366        30.93913         1.28514
H         68.87530        71.86584         1.31024
H         73.09456        30.95242         0.64594
H         70.94388        29.73874         0.89168
H         73.19839        33.39802         0.78996
H         73.22652        35.35014         1.34227
H         73.22629        37.77608         0.98225
H         73.08597        39.83349         1.12802
H         73.07310        42.15473         0.40509
H         73.19304        43.87277        -0.62100
H         73.17219        46.28605        -0.59447
H         73.14867        48.29572        -0.54176
H         73.05456        50.70091        -0.17955
H         72.82287        52.58356        -0.85201
H         72.95193        54.97822        -0.32437
H         73.18206        56.70544         0.77215
H         73.23604        59.10364         0.51311
H         73.27015        61.05514         0.05844
H         73.22537        63.41033        -0.20029
H         73.25318        65.30189        -0.31315
H         73.19768        67.63337         0.26813
H         73.15760        69.31197         1.17118
H         73.13273        71.65780         1.91450
H         70.98469        72.94141         1.97599
