         300
 CSIRO Nanostructure Databank - Neutral Graphene Oxide Data Set
C         30.43092        31.56014        -1.15772
C         30.54249        32.72507        -1.66825
C         30.51406        36.01524        -1.41338
C         30.48603        37.24149        -1.34601
C         30.26353        40.51385        -0.76951
C         30.28693        41.75175        -0.81615
C         32.48402        29.06368         0.77867
C         31.56583        29.56447         0.09112
C         32.83308        31.40793        -0.75711
C         31.44377        30.77145        -0.62230
C         32.91798        32.88793        -1.22578
C         31.53847        33.71725        -1.07934
C         32.91918        35.94471        -1.26118
C         31.63657        35.07792        -1.76176
C         32.89351        37.44005        -1.00076
C         31.57125        38.20717        -1.19050
C         32.61488        40.35351        -0.21742
C         31.46100        39.65776        -0.93797
C         32.66423        41.87340        -0.29503
C         31.36899        42.69103        -0.54282
C         32.85584        44.40036        -1.42561
C         31.73126        43.90816        -1.28091
C         35.28978        27.40651         1.58667
C         35.10759        28.81364         1.22003
C         33.86185        29.54973         0.83828
C         35.31792        31.49522         0.07229
C         34.02293        30.75943        -0.09280
C         35.34574        32.94199        -0.33726
C         33.98416        33.67302        -0.36969
C         35.24380        35.88798         0.01533
C         34.18677        35.11986        -0.96075
C         35.20239        37.44673        -0.02961
C         34.04824        38.12776        -0.30912
C         35.10450        40.39289         0.47852
C         33.86855        39.57855         0.09937
C         35.12223        41.92806         0.26734
C         34.02930        42.43253        -0.65825
C         35.48283        44.57017        -1.20859
C         34.18923        43.78666        -1.30207
C         35.41037        45.92002        -0.51523
C         37.69213        27.11699         1.24424
C         36.30930        26.71112         1.57013
C         37.67113        28.64477         1.21207
C         36.43786        29.28573         0.51652
C         37.69889        31.56086         0.82376
C         36.44983        30.80965         0.38897
C         37.92861        32.95665         0.14995
C         36.63464        33.71168        -0.24707
C         37.76713        35.90617         0.51306
C         36.65720        35.27331        -0.32046
C         37.65712        37.36839         0.85374
C         36.26774        38.08874         0.89714
C         37.69303        40.38772         0.85977
C         36.36170        39.64429         0.80734
C         37.72798        41.93457         0.69374
C         36.49644        42.53635        -0.00261
C         37.75752        44.61504         0.12580
C         36.57336        43.83824        -0.39283
C         37.66833        46.08345         0.44946
C         36.38802        46.54846        -0.08966
C         40.29128        24.34112         1.34791
C         39.28260        24.98917         1.65645
C         40.32854        27.16329         1.43905
C         38.99109        26.40673         1.39128
C         40.33396        28.71562         1.62305
C         38.96331        29.37965         1.35665
C         40.23448        31.51658         1.05310
C         38.99860        30.72016         0.62641
C         40.23254        33.00582         1.21999
C         38.91605        33.79598         1.01956
C         40.24630        35.95244         1.07950
C         39.12141        35.18797         0.36194
C         40.24241        37.38372         0.56271
C         38.94736        38.13688         0.62027
C         40.26275        40.32430         0.56959
C         38.98882        39.62852         0.80566
C         40.34982        41.67623        -0.08673
C         39.02868        42.45762        -0.03384
C         40.38221        44.73402        -0.15540
C         39.06855        43.94985        -0.15186
C         40.27010        46.18094         0.39466
C         38.91262        46.88354         0.76438
C         40.07665        48.96927         0.35460
C         39.06864        48.27010         0.21465
C         42.73117        24.41160         0.23865
C         41.31584        24.90183         0.38798
C         42.64703        27.21862         0.30040
C         41.52312        26.40142         0.91496
C         42.81314        28.62143         0.92190
C         41.50280        29.41651         0.90072
C         42.67359        31.55324         0.29847
C         41.50499        30.77548         0.80772
C         42.71390        33.05564         0.47985
C         41.59393        33.74272         1.28778
C         42.82370        35.97387         1.25685
C         41.56061        35.21250         0.93702
C         42.84820        37.36315         0.63711
C         41.55783        38.10335         0.47659
C         42.81202        40.33850         0.53110
C         41.52560        39.58932         0.65847
C         42.78917        41.83236         0.39428
C         41.60004        42.48672         0.32591
C         42.80053        44.73884         0.59465
C         41.46536        43.96711         0.68416
C         42.75439        46.23397         0.51664
C         41.40875        46.88098         0.58110
C         42.67593        48.99403         0.57201
C         41.34418        48.59092         1.04290
C         43.65004        25.07577        -0.25462
C         44.98498        27.27460        -1.01701
C         43.79487        26.53427        -0.41635
C         45.15732        28.70304        -0.45323
C         44.05279        29.36256         0.32069
C         45.24153        31.59273        -0.04243
C         43.96321        30.84221         0.05981
C         45.32589        32.93168         0.64497
C         44.03953        33.75705         0.52002
C         45.39784        35.90824         0.70661
C         44.12871        35.17778         1.02024
C         45.39470        37.39033         0.33596
C         44.10854        38.12519         0.66541
C         45.34784        40.28985         0.09238
C         44.05415        39.53989         0.25694
C         45.25472        41.82246        -0.18299
C         44.12714        42.52591         0.62713
C         45.29525        44.75610        -0.12885
C         44.03516        43.99655         0.16382
C         45.24390        46.29842        -0.26455
C         43.96173        47.01836        -0.01364
C         43.74519        48.43604         0.32889
C         47.35905        27.44917        -1.37488
C         46.41931        26.75319        -0.97210
C         47.44870        28.89038        -1.65994
C         46.21609        29.58023        -1.11543
C         47.63577        31.63858        -0.55443
C         46.35697        30.98524        -0.60097
C         47.73939        32.97284        -0.05255
C         46.60503        33.68120         0.33591
C         47.89029        35.85720         0.80275
C         46.64580        35.19330         0.18067
C         47.91797        37.38424         1.04535
C         46.53630        38.12324         1.07992
C         47.87714        40.37731         0.64483
C         46.58083        39.63716         0.69133
C         47.90920        41.80925         0.14696
C         46.61291        42.53927        -0.07541
C         47.92273        44.70599        -0.08140
C         46.59826        44.02680         0.30888
C         47.63595        46.07882        -0.32249
C         46.63108        46.80560        -0.23640
C         50.03800        29.05338        -1.99132
C         48.68224        29.71700        -1.94722
C         49.96259        31.84137        -1.52645
C         48.90406        30.88970        -0.93196
C         50.11675        33.20077        -0.90843
C         49.13348        33.57916         0.18752
C         50.49313        35.83226         0.57950
C         49.16261        35.07720         0.60635
C         50.55275        37.34443         0.81293
C         49.23808        38.15193         1.04314
C         50.18314        40.50785         1.28651
C         49.17574        39.66771         0.88469
C         50.17841        41.96129         1.09725
C         49.11502        42.61632         0.50803
C         50.43128        44.51027        -0.19334
C         49.10584        44.02629         0.05740
C         51.11626        29.65046        -2.08105
C         52.48168        31.86570        -1.87673
C         51.36836        31.06691        -2.42920
C         52.43011        33.04202        -1.43998
C         51.44912        33.83473        -0.83231
C         52.28895        36.16075        -1.06974
C         51.73505        35.10007        -0.10649
C         52.33917        37.37184        -0.85629
C         51.99744        38.03394         0.42956
C         52.77146        40.51259        -0.02575
C         52.05086        39.51273         0.53283
C         52.80932        41.79121        -0.16653
C         52.13249        42.89127         0.24836
C         51.57495        44.04410        -0.37311
O         37.61365        36.33266         1.87764
O         51.37884        42.60489         1.47501
O         31.73091        39.19471        -2.26560
O         51.39548        39.95513         1.74074
O         33.72736        30.50189        -1.51196
O         31.94621        42.59303         0.75687
O         47.44617        42.14411        -1.20659
O         50.81443        36.39350         1.87679
O         34.50089        29.73481         2.12759
O         37.49247        45.07621         1.49012
O         39.49729        37.68188        -0.66069
O         44.50057        44.19879        -1.19451
O         34.31995        42.54805        -2.07467
O         43.06058        45.54230         1.79327
O         49.49337        32.98089        -2.24429
O         43.24910        33.72890        -0.70051
O         42.26188        37.58293        -0.70665
O         42.61486        27.06948        -1.13337
O         44.38503        46.71176        -1.34896
O         48.61964        37.71326         2.28054
O         38.83328        43.10702        -1.33530
O         35.49778        40.17300         1.85840
O         45.26052        28.90059         0.97820
O         42.32686        39.98325         1.87567
O         43.06748        28.45054         2.28626
O         38.36982        40.02075         2.11011
O         49.63333        32.87298         1.36014
O         44.71944        39.67465        -1.06174
O         41.31510        26.55188         2.32169
O         34.94929        35.58876         1.33281
O         45.10364        35.47471         2.05426
O         32.80712        39.78041         1.10084
O         38.03528        29.25785         2.47718
O         43.04382        31.13307        -1.06091
O         40.10151        32.11396         2.38331
O         47.02939        40.38608         1.86302
O         33.25724        36.89538        -2.32588
O         36.18049        33.13046        -1.52233
O         38.32867        26.55617         0.08844
O         46.36843        29.32622        -2.54428
O         52.93877        37.55093         1.39946
H         52.77237        38.01762         2.24695
O         31.16596        33.96106         0.24473
H         31.08825        33.12671         0.75097
O         42.74214        36.25500         2.67246
H         42.68300        35.39146         3.14851
O         42.05877        33.65868         2.66813
H         41.51938        32.95475         3.11211
O         38.38380        34.06894         2.31436
H         38.25720        33.20665         2.78587
O         46.09421        38.08217         2.43599
H         46.82194        38.42696         3.00174
O         48.54813        30.31901        -3.23566
H         47.70753        30.00041        -3.64370
O         37.44380        31.76406         2.22634
H         37.51035        30.88624         2.68776
O         48.48610        35.14486         1.90668
H         49.26077        33.32520         2.15400
O         35.75139        37.86695         2.20704
H         35.50918        36.90096         2.26815
O         37.77567        42.48798         2.01347
H         38.12562        41.79395         2.62169
O         49.41172        30.31539         0.28125
H         49.61292        31.04842         0.91457
O         41.20811        48.68516         2.40382
H         40.32680        48.31927         2.65916
O         51.16939        31.31512        -3.76000
H         50.31493        30.90175        -4.02887
O         40.59932        41.32370        -1.48437
H         40.05569        41.92222        -2.04966
O         37.06424        35.64631        -1.65421
H         36.49542        35.12727        -2.28034
O         40.73897        24.96302        -0.87965
H         40.58068        24.06142        -1.22457
O         38.95448        47.04514         2.19258
H         38.33759        46.39057         2.59676
O         36.42135        28.74140        -0.80801
H         35.74108        29.19438        -1.34993
O         34.74421        34.91861        -2.25756
H         34.46811        35.67829        -2.82388
O         40.85384        44.84419        -1.50158
H         40.27439        44.30984        -2.08866
O         44.45850        42.43574         2.01427
H         43.65238        42.55600         2.55762
O         39.14989        30.29616        -0.73612
H         39.29661        31.09554        -1.29729
O         40.59426        28.94670         3.01067
H         41.54621        28.66256         3.14891
O         46.58812        44.03937         1.75411
H         46.67083        44.96342         2.07069
O         39.56653        35.05740        -0.98252
H         38.83980        35.33839        -1.59156
O         45.35884        32.62067         2.08166
H         46.13615        32.05075         2.26395
O         46.84908        35.34086        -1.24502
H         46.01281        35.14868        -1.71999
O         41.02083        43.97813         2.05233
H         41.52896        44.68555         2.51964
O         33.47383        33.62807         0.95190
H         33.94320        34.34524         1.48227
O         36.00575        44.75062        -2.51607
H         35.27012        44.92082        -3.13991
O         40.09124        36.03862         2.50752
H         39.41621        35.36796         2.80184
O         31.73664        34.91954        -3.14159
H         31.88881        35.80132        -3.54579
O         44.69317        27.42335        -2.39492
H         44.28899        26.59910        -2.73509
O         34.75127        42.52236         1.52715
H         35.19100        42.00592         2.24391
O         33.24726        32.87705        -2.59455
H         33.77734        32.07111        -2.78445
O         38.62904        32.74289        -1.09161
H         37.95142        32.70375        -1.80789
O         44.85559        41.92015        -1.55126
H         45.64533        41.77904        -2.11695
O         45.62824        37.36763        -1.08549
H         45.12214        38.08960        -1.53034
O         52.71930        34.86221         0.85324
H         52.92165        35.72257         1.30504
