         276
 CSIRO Nanostructure Databank - Neutral Graphene Oxide Data Set
C        -11.22207         0.56858        -0.41977
C         -9.99998         1.40129        -0.08159
C         -8.68873         0.60181        -0.17517
C         -7.36218         1.37345        -0.30451
C         -6.17090         0.51174        -0.76250
C         -4.78929         1.23195        -0.82840
C         -3.77143         0.72793         0.19299
C         -2.40327         1.34756         0.08121
C         -1.28301         0.69678         0.82700
C         -0.14451         1.50526         1.37443
C          1.17036         0.78638         1.18756
C          2.43162         1.56130         0.99565
C          3.74191         0.84771         0.74884
C          4.99150         1.61658         0.45137
C          6.27943         0.89066         0.33530
C          7.46010         1.55564         0.38325
C          8.72366         0.78985         0.28195
C          9.98997         1.55928        -0.01272
C         11.15657         0.77975        -0.48254
C         -9.92551         2.79569        -0.64898
C         -8.72842         3.48186        -0.76724
C         -7.45470         2.71995        -1.05355
C         -6.18933         3.51535        -0.81109
C         -4.90003         2.78014        -0.88426
C         -3.63431         3.55286        -0.58810
C         -2.36399         2.84530        -0.16965
C         -1.26029         3.64697         0.45185
C         -0.16856         2.98751         1.25055
C          1.13239         3.75887         1.33244
C          2.43896         3.03730         1.26758
C          3.74349         3.78204         1.09273
C          5.02261         3.06564         0.82597
C          6.28876         3.83693         0.55725
C          7.55310         3.05262         0.45728
C          8.74881         3.72134        -0.13235
C          9.88189         3.00724        -0.32797
C         -8.68754         4.89687        -0.70812
C         -7.47291         5.62638        -0.58209
C         -6.20188         4.88661        -0.63979
C         -4.96116         5.63585        -0.47113
C         -3.76273         4.99499        -0.30865
C         -2.50627         5.77228        -0.15818
C         -1.40523         5.13410         0.62160
C         -0.16170         5.93242         0.81386
C          1.11871         5.15910         0.78797
C          2.39036         5.86607         0.48415
C          3.73214         5.30086         0.96307
C          4.79689         5.88184        -0.07253
C          6.18814         5.13258        -0.26804
C          7.44436         5.97991        -0.09778
C          8.73269         5.22688        -0.42669
C         -7.49877         6.99912        -0.34173
C         -6.28754         7.80706        -0.15731
C         -4.96908         7.12548        -0.30287
C         -3.78495         7.89024        -0.91337
C         -2.46700         7.24331        -0.43691
C         -1.34679         8.03880         0.13662
C         -0.14765         7.38775         0.49953
C          1.07056         8.09858         0.58213
C          2.33101         7.36458         0.34457
C          3.61831         8.12253         0.29160
C          4.91000         7.34216         0.37112
C          6.19253         8.10239         0.31633
C          7.42910         7.33096         0.00016
C         -6.30324         9.28381        -0.29338
C         -5.17917        10.00302        -0.43526
C         -3.81102         9.44989        -0.77946
C         -2.66302        10.06861        -0.00168
C         -1.44599         9.46594         0.20704
C         -0.22808        10.28489         0.65175
C          1.10459         9.54073         0.56437
C          2.29947        10.22292         0.60873
C          3.63619         9.53953         0.84424
C          4.88463        10.23339         0.31386
C          6.04737         9.57267         0.12289
C        -11.24366        -0.76850        -0.53646
C        -10.00504        -1.58903        -0.80827
C         -8.74368        -0.89211        -0.31977
C         -7.51126        -1.77346        -0.44701
C         -6.21333        -0.94851        -0.41715
C         -5.22541        -1.41924         0.64972
C         -3.89346        -0.65547         0.75456
C         -2.65943        -1.43484         1.18023
C         -1.37646        -0.70906         1.35210
C         -0.06874        -1.47368         1.39976
C          1.21804        -0.70228         1.41035
C          2.56646        -1.39007         1.29971
C          3.83817        -0.60913         1.12383
C          5.23970        -1.25382         1.06384
C          6.12436        -0.58413        -0.04296
C          7.44990        -1.29914        -0.18338
C          8.64591        -0.65531        -0.07764
C          9.91314        -1.35101        -0.33293
C         11.13775        -0.57218        -0.48953
C        -10.00023        -3.05930        -0.40506
C         -8.91318        -3.72965         0.04175
C         -7.70870        -2.95826         0.58735
C         -6.38919        -3.75744         0.71151
C         -5.11687        -2.95033         0.70525
C         -3.80620        -3.55190         0.28980
C         -2.53926        -2.84011         0.66042
C         -1.22547        -3.55609         0.74100
C         -0.05563        -2.91774         1.04480
C          1.28090        -3.62844         0.99754
C          2.59190        -2.88214         1.08589
C          3.90722        -3.57730         1.50769
C          5.22061        -2.82233         1.05978
C          6.41296        -3.53329         0.46148
C          7.29227        -2.76890        -0.58088
C          8.67976        -3.45358        -0.96000
C          9.91692        -2.69545        -0.55821
C         -8.93046        -5.23554         0.22328
C         -7.60038        -5.91482        -0.09355
C         -6.33502        -5.28812         0.48146
C         -5.07639        -5.75340        -0.27089
C         -3.79817        -4.99771        -0.11998
C         -2.54903        -5.73730         0.29044
C         -1.22420        -5.00125         0.36463
C          0.02394        -5.77561         0.65890
C          1.21301        -5.11924         1.37703
C          2.54988        -5.86702         1.10083
C          3.85350        -5.10016         1.08475
C          5.03969        -5.73822         0.38484
C          6.32061        -5.00818         0.16611
C          7.37521        -5.58090        -0.72141
C          8.72406        -4.93827        -0.51106
C         -7.55087        -7.19486        -0.52056
C         -6.30202        -8.05612        -0.58906
C         -4.99951        -7.24593        -0.50256
C         -3.74850        -7.99558        -0.18038
C         -2.60856        -7.22838         0.43494
C         -1.33741        -7.99890         0.64134
C         -0.05952        -7.26707         0.79380
C          1.18310        -8.00573         0.40176
C          2.49065        -7.29510         0.53631
C          3.74203        -7.86048        -0.09255
C          4.76433        -6.86815        -0.58281
C          5.82194        -7.31806        -1.54463
C          7.15843        -6.67539        -1.47971
C         -6.27045        -9.12304         0.50075
C         -5.14379        -9.79196         0.78799
C         -3.85525        -9.52754         0.02010
C         -2.59664       -10.15830         0.69535
C         -1.32704        -9.44379         0.26963
C         -0.21051        -9.98681        -0.26233
C          0.91827        -9.05515        -0.71038
C          2.23428        -9.67703        -1.08173
C          3.21059        -8.85429        -1.72042
C          4.55112        -9.40350        -2.10995
C          5.69993        -8.70197        -2.07460
O         -1.21359         3.26492        -0.95553
O         -2.20558        -1.06238         2.50531
O         -3.08757        -2.77368        -0.71516
O         -8.70426        -0.28273         1.00269
O          9.09339        -5.04455         0.86559
H          8.34372        -4.77473         1.43692
O          7.16565         3.77204         1.70463
O         -4.03884        -7.57902        -1.55070
O          4.60022         3.33106         2.20264
O         -9.98244        -5.83495        -0.52452
H         -9.86336        -5.60769        -1.46918
O         -6.95747         1.74220         1.03389
H         -7.01341         0.92883         1.59285
O         -5.66037        -3.45778         1.95045
O          1.85477         3.47042         2.54850
O          5.61899         7.60993         1.60923
O          3.43941        -5.88424         2.24817
O         -5.96489        -1.01048         1.83307
H         -5.37460        -1.10015         2.61242
O          6.13958        -5.91158         1.32010
O          6.49668        -2.86711        -1.74437
O          9.63558         1.16224         1.36613
O          4.71015        -6.41263        -1.95848
O         -7.49384        -2.49450        -1.70719
H         -6.97690        -1.95468        -2.35246
O         -0.24803        -5.32155        -0.68931
O          3.91325        -3.54786         2.93318
H          4.81811        -3.79125         3.23126
O          4.35805        -8.77178         0.71115
H          3.70101        -9.07563         1.38847
O         -6.34085         2.10675        -3.10633
H         -5.99405         2.96790        -3.44963
O         -1.07354         5.63343         1.93893
O          2.07224        -3.32166        -0.19947
O         -4.04705         3.28122        -1.97206
O         -0.73017        -7.78126         1.97275
O         -1.37116         0.63261        -0.63892
O         -2.90165        -6.38330         1.57803
O          4.09330         1.23065        -0.62219
O          2.88641         7.92423        -0.92679
O         -4.13617         0.83357        -2.03985
H         -4.72196         1.06050        -2.79628
O         -7.61554         2.46164        -2.52632
O          0.94125        -5.20419         2.77602
H          1.80088        -5.19594         3.25696
O         -3.95133       -10.15531        -1.26714
H         -4.76553        -9.79365        -1.70351
O          1.58779         1.18236        -0.15619
O         -4.30677         6.38704        -2.73681
H         -3.44212         5.89479        -2.76294
O         -4.13042         0.54968         1.57547
O          6.37775        -3.25199         1.87730
O         -5.40684         7.46942         1.03453
O         -4.48325        -5.07087        -1.41703
O         -3.89406         7.72645        -2.39003
O         -0.50208         2.32390         2.51253
O          3.93010         5.84633         2.26888
H          4.47075         5.20144         2.78357
O          9.84572         5.84750         0.22178
H          9.77157         5.67771         1.18364
O          3.32048        -0.90643         2.45832
O          6.28210         4.68490        -1.59387
O          5.87445        -0.84355         2.28257
H          5.28854        -1.09669         3.03018
O        -10.19646         1.72453         1.33657
H         -9.86803         0.94062         1.83962
O          2.03099        -8.30523         1.52672
O         -6.05565        -0.51367        -1.80278
O          1.69885         5.15296        -0.56744
O          0.61185        -1.14478         2.65891
O          3.75944         9.44272         2.29008
H          4.52371         8.83499         2.46465
O         -1.97338         6.27648        -1.43941
O         -8.10936        -2.53872         1.88273
H         -7.29841        -2.45971         2.43696
O          5.43638        -0.62725        -1.28988
H          5.71742        -1.46029        -1.77795
O          4.16217         5.84949        -1.33867
H          4.78853         5.37063        -1.95463
O         -6.30844        -8.75595        -1.86209
H         -5.97288        -8.13370        -2.54329
O         -9.93075        -1.60514        -2.26744
H         -9.13734        -2.14832        -2.49590
O         -2.70401       -10.09030         2.11844
H         -2.37114        -9.22443         2.43799
O         -3.54494        10.03721        -2.08971
H         -2.79896         9.55512        -2.50631
O          0.37837        -8.25715        -1.78027
H          0.26152        -8.81913        -2.57337
O         -0.41647        10.72536         2.00445
H         -0.32588         9.95592         2.60334
O         -6.28431        -5.93473         1.72621
O          2.71950        -7.88996        -2.55747
H          3.45313        -7.31876        -2.89075
O          8.76804        -3.46687        -2.39718
H          7.85836        -3.19846        -2.71257
H         12.04481        -1.12800        -0.77130
H         12.07593         1.32503        -0.74397
H         10.77364         3.50449        -0.74086
H          8.90271         5.34674        -1.53160
H          8.38500         7.87936        -0.02863
H          6.93237        10.12739        -0.22645
H          4.85005        11.32210         0.15231
H          2.27898        11.32487         0.61505
H         -0.17828        11.21105         0.02370
H         -2.73471        11.15996         0.13114
H         -5.24822        11.10096        -0.46956
H         -7.26771         9.79724        -0.15866
H         -8.46968         7.51836        -0.34405
H         -9.63750         5.44064        -0.58874
H        -10.85243         3.38833        -0.56964
H        -12.17949         1.10744        -0.33213
H        -12.21237        -1.28112        -0.64653
H        -10.88618        -3.64257        -0.70870
H         -9.13493        -5.44596         1.30873
H         -8.48841        -7.68532        -0.82995
H         -7.20185        -9.34194         1.04355
H         -5.13829       -10.56886         1.56711
H         -2.55449       -11.23674         0.40669
H         -0.15785       -11.06023        -0.49997
H          2.59029       -10.52681        -0.47937
H          4.57542       -10.44608        -2.46401
H          6.63180        -9.18628        -2.40344
H          7.97793        -7.12854        -2.05689
H          9.50525        -5.46669        -1.10913
H         10.87542        -3.20688        -0.74057
