         618
 CSIRO Nanostructure Databank - Neutral Graphene Oxide Data Set
C         23.68627        69.49576        -3.14051
C         23.68487        71.00175        -3.20360
C         22.58667        71.70215        -3.60641
C         23.68922        73.87571        -3.37444
C         22.58154        73.14270        -3.65976
C         25.41706        65.43851        -0.83116
C         25.43284        66.95338        -0.83504
C         24.53119        67.61809        -1.78984
C         25.81137        69.71189        -1.67052
C         24.67497        68.92364        -2.14164
C         25.97173        71.06338        -2.08591
C         24.96502        71.69086        -2.96652
C         26.05234        73.94944        -2.42288
C         24.97500        73.22324        -3.09567
C         27.84082        61.20232        -0.06894
C         27.71611        62.60142         0.32020
C         26.60648        63.41649        -0.17967
C         27.82160        65.53017         0.20461
C         26.63599        64.77914        -0.21320
C         27.86363        66.98506         0.05714
C         26.65377        67.71768        -0.39068
C         27.96271        69.83932        -0.48926
C         26.81315        69.10493        -0.87752
C         28.02909        71.21883        -0.78314
C         27.04794        71.83575        -1.59777
C         28.24445        74.01983        -1.35466
C         27.10280        73.28529        -1.81630
C         30.38985        57.02365        -0.15151
C         30.34888        58.43244        -0.12381
C         29.12324        59.12491        -0.13740
C         30.29996        61.27255         0.23368
C         29.06127        60.53304         0.03182
C         30.28854        62.65727         0.50876
C         28.99686        63.35854         0.69642
C         30.18424        65.53881         1.00526
C         28.95746        64.83204         0.60223
C         30.21912        67.02357         0.80718
C         29.02162        67.70537         0.27370
C         30.19592        69.86676         0.59343
C         29.08501        69.16005         0.14890
C         30.16865        71.34407         0.63646
C         29.05945        72.04128        -0.12666
C         30.46940        74.10041        -0.32452
C         29.26328        73.42919        -0.61016
C         32.89201        52.80405        -0.04014
C         32.87010        54.21027        -0.15250
C         31.64776        54.91861        -0.11410
C         32.85554        57.06321        -0.24856
C         31.61851        56.32586        -0.16834
C         32.82688        58.49001        -0.20061
C         31.58712        59.17792        -0.08756
C         32.77150        61.33356         0.08246
C         31.54859        60.59187         0.07597
C         32.73991        62.74435         0.37992
C         31.50320        63.37997         0.60218
C         32.73150        65.58446         0.98147
C         31.47822        64.75979         1.22969
C         32.75718        66.97198         1.00881
C         31.53229        67.72471         0.54776
C         32.70248        69.88293         1.35450
C         31.42498        69.15319         1.04408
C         32.70869        71.38900         1.27951
C         31.43064        72.12328         0.90743
C         32.80266        74.12630         0.39416
C         31.56639        73.48130         0.32105
C         35.29349        48.52069         0.14655
C         35.30619        49.94783        -0.04452
C         34.10922        50.66942         0.02655
C         35.33449        52.78513        -0.31817
C         34.09852        52.08181        -0.10735
C         35.31291        54.19524        -0.40177
C         34.10761        54.92742        -0.32489
C         35.29566        57.11691        -0.54237
C         34.09262        56.37060        -0.38076
C         35.30522        58.52944        -0.46187
C         34.04999        59.23694        -0.26989
C         35.21449        61.43612        -0.37132
C         33.99153        60.64210        -0.15893
C         35.23585        62.86679         0.11415
C         33.96913        63.49285         0.56980
C         35.21402        65.53987         1.26336
C         33.95765        64.84141         0.90408
C         35.22822        67.02691         1.30260
C         33.99859        67.72133         1.14916
C         35.21278        69.85718         1.26969
C         34.00068        69.15066         1.22349
C         35.25774        71.36742         1.45120
C         33.98505        72.07149         1.05446
C         35.26007        74.14757         0.72392
C         34.00883        73.44246         0.74991
C         37.68296        44.23755         0.62808
C         37.62008        45.64358         0.67378
C         36.44480        46.35275         0.42267
C         37.75172        48.43955         0.09822
C         36.45580        47.77611         0.26718
C         37.76459        49.82754        -0.44219
C         36.53232        50.63491        -0.32259
C         37.81646        52.74786        -0.60616
C         36.56938        52.04397        -0.45667
C         37.85676        54.18884        -0.60969
C         36.56076        54.90440        -0.74070
C         37.88656        57.13443        -0.93694
C         36.54325        56.39585        -0.88694
C         37.80193        58.57317        -0.45929
C         36.55046        59.23867        -0.50283
C         37.79319        61.48936        -0.43075
C         36.51383        60.71596        -0.57723
C         37.73264        62.87610         0.11861
C         36.54829        63.47950         0.43223
C         37.79229        65.54861         1.30247
C         36.51490        64.78626         1.13763
C         37.72896        67.04475         1.54699
C         36.43897        67.74839         1.39721
C         37.71731        69.90326         1.27691
C         36.45366        69.16489         1.29705
C         37.74565        71.28654         1.10131
C         36.45538        71.96623         0.70883
C         37.70474        74.15885         0.85491
C         36.48486        73.47606         0.80905
C         40.14599        40.02839         0.01966
C         40.14038        41.43177         0.22465
C         38.93233        42.12368         0.41802
C         40.16150        44.22687         0.71740
C         38.90523        43.52053         0.62578
C         40.12726        45.64393         1.16523
C         38.81622        46.45040         1.13860
C         40.25457        48.37060         0.03118
C         38.90638        47.77815         0.38291
C         40.29623        49.88479        -0.02671
C         39.08254        50.57121        -0.50509
C         40.26434        52.74291        -0.42106
C         39.06594        52.05303        -0.49609
C         40.33192        54.17498        -0.89791
C         39.04300        54.89961        -0.53674
C         40.29581        57.12236        -0.20626
C         38.98195        56.36715        -0.16713
C         40.27498        58.50669        -0.03143
C         39.01670        59.23655        -0.20071
C         40.30456        61.41708         0.21411
C         39.06946        60.70382        -0.26917
C         40.21568        62.82262         0.58139
C         39.04547        63.63745         0.06427
C         40.20922        65.67476         0.90061
C         39.04449        64.98566         0.75988
C         40.25369        67.02135         1.60917
C         38.98058        67.80458         1.42619
C         40.22635        69.92467         1.27618
C         38.97432        69.18217         1.36784
C         40.19933        71.36014         1.24059
C         38.97320        72.02736         1.13998
C         40.13248        74.21165         1.14690
C         38.95985        73.49172         1.03424
C         42.49298        35.84100        -0.91263
C         42.47701        37.23858        -0.89844
C         41.32895        37.93720        -0.48944
C         42.57518        40.07990        -0.41313
C         41.32086        39.34090        -0.30284
C         42.59586        41.49206        -0.09588
C         41.39157        42.16269         0.18955
C         42.63766        44.33323         0.31390
C         41.36080        43.58189         0.43438
C         42.69544        45.78426         0.81664
C         41.39538        46.41380         1.26766
C         42.26347        48.70328         1.44077
C         41.29453        47.87718         0.99080
C         42.61028        49.99032         0.85332
C         41.45522        50.58876         0.17377
C         42.82884        52.71453        -0.11551
C         41.52403        51.99542        -0.28922
C         42.83842        54.20151        -0.03458
C         41.63992        54.92084        -0.54011
C         42.78414        57.08333         0.30918
C         41.59018        56.41939        -0.25360
C         42.71289        58.50539         0.52626
C         41.50303        59.19249         0.33928
C         42.72246        61.36006         0.92574
C         41.40539        60.60846         0.86579
C         42.73632        62.75289         0.94443
C         41.51135        63.50840         0.60538
C         42.76981        65.74948         0.86257
C         41.49871        65.01765         0.57003
C         42.69113        67.16620         1.23380
C         41.48585        67.82428         1.26307
C         42.67202        69.98118         0.68803
C         41.44397        69.24902         1.18401
C         42.64567        71.44973         1.02992
C         41.46255        72.09316         1.24988
C         42.68287        74.30116         1.21791
C         41.41964        73.57213         1.58823
C         44.91340        32.97087        -0.97490
C         43.69308        33.70076        -1.06887
C         44.92560        35.81420        -1.45178
C         43.67094        35.09007        -1.17746
C         44.98363        37.27372        -1.25036
C         43.67087        38.02461        -1.40315
C         44.96567        40.17157        -1.01381
C         43.71727        39.42732        -0.84160
C         45.02197        41.56583        -0.56493
C         43.86378        42.20313        -0.14641
C         45.12666        44.31889         0.18654
C         43.90122        43.61592         0.15568
C         45.18319        45.66594         0.72078
C         44.01476        46.29973         1.21306
C         45.22169        48.42157         1.55279
C         44.15267        47.60596         1.80722
C         45.10145        49.93791         1.68721
C         43.88264        50.53496         0.87647
C         45.26353        52.68230         0.64019
C         44.03282        51.91210         0.32347
C         45.16789        54.16449         0.84587
C         43.95201        54.90456         0.39638
C         45.19912        57.07370         0.81154
C         43.96256        56.35608         0.51958
C         45.19099        58.48275         0.92424
C         43.93762        59.21582         0.88166
C         45.18317        61.31382         1.52541
C         43.93048        60.60266         1.06367
C         45.16393        62.79421         1.25391
C         43.98626        63.47564         1.10849
C         45.20020        65.66943         1.69283
C         44.02686        64.96932         1.06669
C         45.22773        67.17243         1.70371
C         43.93651        67.91900         1.46470
C         45.18695        69.99678         1.07889
C         43.97565        69.32609         1.08365
C         45.20598        71.43231         0.93510
C         43.91699        72.20560         0.71629
C         45.22430        74.29503         1.06711
C         43.96625        73.55824         1.43204
C         46.13415        33.58997        -0.98920
C         47.42967        35.78750        -0.95245
C         46.24351        35.01457        -1.32324
C         47.42737        37.15347        -0.93679
C         46.19932        37.91060        -1.12801
C         47.52406        40.10155        -0.80572
C         46.26422        39.39902        -1.15488
C         47.54706        41.49649        -0.65628
C         46.29344        42.32977        -0.85548
C         47.58555        44.28839         0.05906
C         46.35107        43.66050        -0.14688
C         47.63521        45.65183         0.52613
C         46.44256        46.32069         0.84863
C         47.71620        48.47398         1.26422
C         46.51002        47.65687         1.56455
C         47.69763        49.84535         1.32628
C         46.43908        50.61502         1.35192
C         47.75413        52.67567         0.73732
C         46.47745        51.95966         1.11890
C         47.74343        54.17047         0.98158
C         46.46930        54.90832         1.02062
C         47.66472        57.07150         0.82905
C         46.45587        56.38098         0.85896
C         47.67752        58.49935         0.88834
C         46.43941        59.19978         1.01167
C         47.68544        61.30817         1.12445
C         46.46592        60.61739         1.13545
C         47.72507        62.79032         1.08368
C         46.44444        63.53437         1.13812
C         47.74784        65.70965         1.42652
C         46.49485        64.94974         1.60912
C         47.71513        67.12632         1.31097
C         46.48681        67.86986         1.39233
C         47.66534        69.96781         0.90760
C         46.45527        69.26737         1.17550
C         47.65339        71.40255         0.77904
C         46.40074        72.12467         0.89648
C         47.65469        74.25632         0.69786
C         46.40841        73.59265         0.86538
C         48.72845        37.84183        -0.57991
C         49.94518        40.00748        -0.60560
C         48.73205        39.34919        -0.68543
C         50.00761        41.42894        -0.51840
C         48.78146        42.17056        -0.44561
C         50.06705        44.21531         0.07377
C         48.82625        43.57084        -0.14056
C         50.10581        45.57833         0.51707
C         48.91387        46.28459         0.72053
C         50.26773        48.40962         1.28600
C         48.95504        47.66386         1.25484
C         50.19727        49.86590         1.28903
C         48.97425        50.57842         1.30153
C         50.20217        52.77551         1.62921
C         48.98265        51.97864         1.23719
C         50.17654        54.19822         1.13560
C         48.96569        54.87129         0.95252
C         50.18261        57.11889         0.93729
C         48.95451        56.33541         0.54391
C         50.18121        58.48754         0.97067
C         48.91609        59.21908         0.95609
C         50.20155        61.33742         1.44588
C         48.91719        60.61380         1.07940
C         50.19612        62.84445         1.24342
C         48.98223        63.54238         1.29742
C         50.18678        65.70180         1.15942
C         48.96192        64.97909         1.29198
C         50.17010        67.12346         1.01351
C         48.93444        67.83449         1.06664
C         50.11292        69.92384         0.52445
C         48.91189        69.24803         0.84167
C         50.03554        71.34513         0.01702
C         48.83194        72.09853         0.50987
C         50.10547        74.20461         0.42355
C         48.86400        73.54045         0.52550
C         51.23494        42.11087        -0.49576
C         52.52364        44.18038        -0.31625
C         51.30132        43.50427        -0.23006
C         52.68774        45.53332         0.20322
C         51.41887        46.23764         0.74071
C         52.60722        48.40403         0.42576
C         51.47912        47.71397         0.79468
C         52.54791        49.88413         0.35518
C         51.47559        50.57856         1.13205
C         52.67871        52.80217         0.70463
C         51.51763        52.05750         1.27249
C         52.70070        54.20054         0.81045
C         51.46632        54.91570         1.20175
C         52.71194        57.09015         0.70299
C         51.46417        56.40475         1.08086
C         52.68825        58.53585         0.63718
C         51.43938        59.24003         0.90423
C         52.64849        61.36702         0.62193
C         51.41763        60.61547         0.91355
C         52.64721        62.84951         0.81473
C         51.40393        63.56410         1.17157
C         52.64130        65.71511         0.93495
C         51.42321        64.99012         1.10665
C         52.62682        67.11254         0.71908
C         51.38525        67.82560         0.75992
C         52.58326        69.90867         0.21555
C         51.35570        69.23248         0.49791
C         52.56835        71.34761        -0.24875
C         51.32864        72.09202         0.15437
C         52.58536        74.19672         0.28175
C         51.34148        73.49207         0.28611
C         53.81529        46.37045        -0.21580
C         54.97630        48.54156        -0.39560
C         53.81071        47.74577        -0.06988
C         55.01117        49.92556        -0.32654
C         53.75926        50.66433        -0.04268
C         55.00636        52.82541        -0.06899
C         53.82427        52.11515         0.25285
C         55.03115        54.22982         0.04603
C         53.88029        54.92294         0.49680
C         55.19528        57.10485         0.61098
C         53.88071        56.36831         0.57226
C         55.06281        58.45362        -0.12882
C         53.86921        59.22470         0.37681
C         55.14439        61.33223         0.42130
C         53.93788        60.64503         0.50158
C         55.21134        62.75153         0.87362
C         53.94035        63.52183         1.10958
C         55.17833        65.74480         0.72648
C         53.94211        65.03754         1.09028
C         55.10579        67.08503         0.38470
C         53.85113        67.80821         0.45650
C         55.04798        69.92879        -0.02398
C         53.80529        69.21353         0.23105
C         55.05103        71.38836         0.01080
C         53.84242        72.08493         0.05637
C         55.05463        74.21572         0.27319
C         53.82716        73.51903         0.20008
C         56.19480        50.69795        -0.54316
C         57.42823        52.82960        -0.64420
C         56.21481        52.09238        -0.45908
C         57.48791        54.22062        -0.59346
C         56.19047        55.00466        -0.55486
C         57.67745        57.04449         0.12649
C         56.36065        56.34467         0.08080
C         57.53628        58.50263        -0.29414
C         56.36684        59.21269        -0.13064
C         57.57485        61.35630        -0.07844
C         56.37136        60.65825         0.02509
C         57.71515        62.76730         0.33547
C         56.48989        63.51800         0.77927
C         57.46198        65.59625        -0.30647
C         56.54982        65.05728         0.81718
C         57.47726        67.11064        -0.33017
C         56.30929        67.79491        -0.07416
C         57.42735        69.99680        -0.61545
C         56.21954        69.23424        -0.23892
C         57.51330        71.40371        -0.16996
C         56.29453        72.09183         0.07181
C         57.52712        74.21200         0.24462
C         56.30530        73.53550         0.21177
C         58.70445        54.93691        -0.75605
C         59.98570        57.04646        -0.86566
C         58.80671        56.32510        -0.57759
C         60.03459        58.46297        -0.86058
C         58.74008        59.17945        -0.76294
C         60.04654        61.39239        -0.75361
C         58.74242        60.70605        -0.67880
C         60.07916        62.76971        -0.65994
C         58.93269        63.51970        -0.10757
C         59.98339        65.63074        -0.76779
C         58.84593        64.97046        -0.33207
C         59.96832        67.08298        -0.89211
C         58.62186        67.73809        -1.10840
C         59.96029        69.96562        -0.78103
C         58.67548        69.26177        -0.98922
C         59.95615        71.37423        -0.51865
C         58.74650        72.06205        -0.18017
C         60.03594        74.20997        -0.10480
C         58.82292        73.46567         0.37023
C         61.20550        59.21039        -1.06396
C         62.46031        61.35682        -1.16692
C         61.24869        60.63943        -1.03174
C         62.51508        62.77146        -1.11860
C         61.27844        63.50589        -0.91557
C         62.46267        65.62699        -1.25415
C         61.22045        64.89803        -0.97106
C         62.43308        67.11732        -1.14705
C         61.13566        67.80593        -0.93195
C         62.41644        69.96460        -0.85145
C         61.16204        69.25681        -0.84863
C         62.40225        71.39851        -0.82444
C         61.18264        72.08910        -0.58393
C         62.41415        74.23505        -0.75795
C         61.18075        73.53733        -0.46972
C         63.73314        63.49618        -1.18013
C         64.93988        65.66677        -1.18981
C         63.75814        64.90628        -1.15492
C         64.94827        67.08857        -1.09776
C         63.68642        67.79839        -0.65505
C         64.86021        69.99364        -1.06793
C         63.65444        69.28265        -0.92450
C         64.84619        71.42017        -1.13199
C         63.62071        72.12126        -0.99338
C         64.83025        74.34960        -1.35950
C         63.58496        73.56654        -1.00669
C         66.10888        67.83489        -1.23703
C         67.30526        69.98809        -1.25913
C         66.11559        69.27157        -1.17485
C         67.32242        71.41495        -1.25764
C         66.09278        72.13929        -1.23247
C         67.33416        74.22880        -1.29170
C         66.11277        73.55589        -1.26771
C         68.54609        72.13096        -1.29490
C         68.54708        73.51656        -1.29699
O         43.06062        48.19060         2.46550
O         31.87118        72.04398         2.29747
O         38.49131        49.97385        -1.71975
O         51.60208        55.75484         2.41857
O         49.71344        47.77393         2.51898
O         51.97558        51.20100         2.39184
O         45.60689        54.51333         2.19128
O         52.53417        62.30912        -0.55148
O         58.45171        60.00625        -1.94231
O         53.96400        64.24182         2.36004
O         35.78925        64.79520         2.40889
O         47.06850        63.31067        -0.16802
O         45.77225        65.08056         2.89570
O         57.83917        69.87073        -2.04450
O         52.33892        45.58579         1.65112
O         41.61607        64.29907        -0.68008
O         28.11076        62.83193         1.72644
O         58.77869        63.05906         1.31505
O         25.49515        72.34226        -4.16399
O         29.99967        66.48042         2.13803
O         40.11526        61.16688        -1.23086
O         42.59221        45.48636        -0.60854
O         36.40319        55.54838        -2.08205
O         43.75860        65.56950        -0.23718
O         37.21879        61.25596        -1.75358
O         52.67315        50.37430        -1.02347
O         45.66620        35.36194        -2.62334
O         25.47671        67.54562         0.49617
O         41.94137        55.87464        -1.60562
O         40.82531        45.84558         2.47889
O         31.84562        69.35521         2.42260
O         35.06373        62.53344        -1.32147
O         44.47904        67.71184         2.84040
O         29.01688        71.91359         1.33914
O         42.41479        52.22066        -1.44358
O         62.47107        66.50484        -2.46550
O         45.06136        52.17267        -0.73331
O         45.61449        39.95613        -2.36809
O         56.08602        62.92664         2.05620
O         37.86332        66.07843         2.66998
O         38.54748        56.40873         1.23657
H         39.21561        55.94694         1.78505
O         40.97499        60.46404         2.26517
H         41.67649        59.97582         2.74676
O         40.41606        66.74622         3.03686
H         39.53772        66.41837         3.35725
O         63.63020        67.65349         0.80453
H         64.41902        68.09916         1.17945
O         35.45203        71.62471         2.86566
H         34.63157        71.37584         3.34211
O         52.51495        71.25633        -1.74950
H         52.69549        72.15748        -2.09588
O         57.13054        65.43222         2.07671
H         56.81208        64.78393         2.74506
O         45.16643        61.20519         3.00563
H         44.46587        61.80355         3.34342
O         58.10676        57.12710         1.53485
H         57.31775        57.43939         2.04564
O         40.56863        47.91877        -1.31806
H         39.96449        48.40601        -1.92563
O         46.68197        47.27562         2.99385
H         47.64580        47.20906         3.17944
O         49.80383        37.28253        -1.34619
H         49.59753        37.40339        -2.29571
O         47.84489        52.56517        -0.74183
H         46.94577        52.37877        -1.10228
O         44.07490        73.23739         2.88735
H         44.39739        74.04611         3.34021
O         39.21356        63.87869        -1.36245
H         39.53688        63.03472        -1.76208
O         54.77059        58.11830        -1.50880
H         54.81462        58.93687        -2.04543
O         43.85199        72.48073        -0.71122
H         43.68621        71.61600        -1.15678
O         38.49498        46.82541         2.50802
H         39.31169        46.66998         3.04311
O         31.63605        67.79176        -0.91208
H         32.55999        68.02031        -1.14785
O         40.30093        54.08047        -2.35323
H         40.79024        54.86243        -2.70200
O         49.04052        56.27466        -0.92819
H         48.95406        57.18863        -1.27451
O         22.37592        68.97793        -2.90448
H         22.11322        69.20785        -1.98993
O         49.80940        71.19486        -1.44484
H         50.69448        70.98737        -1.84308
O         55.82062        55.21919        -1.96770
H         55.70530        54.33504        -2.37646
O         31.54884        64.47890         2.65963
H         31.18408        65.27092         3.12019
O         42.63249        69.91403        -0.79381
H         41.72203        70.14976        -1.07415
O         46.24888        42.64330        -2.29118
H         46.08888        41.78444        -2.75395
O         41.40140        73.66052         3.06722
H         42.27063        73.28703         3.36469
O         55.43937        57.45571         2.02019
H         55.14333        56.70311         2.57600
O         25.26280        64.96405        -2.18179
H         26.07665        65.17292        -2.68418
O         50.14335        52.87245         3.08490
H         50.70143        52.13476         3.43357
O         36.23803        71.64916        -0.70103
H         36.95155        72.07739        -1.21892
O         50.29771        61.20432         2.91037
H         50.24845        60.24970         3.13256
O         38.29625        57.23760        -2.30880
H         37.80170        56.54763        -2.81310
O         43.47002        38.18387        -2.84344
H         44.21100        38.75183        -3.16363
O         44.82803        50.27266         3.06841
H         44.18105        49.61150         3.40564
O         58.29081        67.40534        -2.50218
H         57.86801        68.21985        -2.87510
O         56.84458        65.17488        -1.56149
H         57.26176        65.72811        -2.26930
O         59.02121        73.29890         1.84842
H         58.21412        72.85908         2.19346
O         64.91614        75.55036        -0.58131
H         65.00764        75.29842         0.36020
H         23.63383        74.97210        -3.30290
H         26.04195        75.04987        -2.44038
H         28.33765        75.07636        -1.64774
H         30.60164        75.12456        -0.70519
H         32.87949        75.16518         0.04010
H         35.24526        75.24556         0.65153
H         37.69804        75.25999         0.84369
H         40.09456        75.31060         1.08748
H         42.68594        75.40004         1.32433
H         45.23589        75.39619         1.08613
H         47.68082        75.35651         0.70985
H         50.13252        75.30306         0.47453
H         52.57764        75.29127         0.38617
H         55.04546        75.31038         0.38113
H         57.53782        75.30672         0.35703
H         60.04784        75.30709        -0.01808
H         62.41403        75.33521        -0.74386
H         64.72265        74.68527        -2.43111
H         67.34042        75.32771        -1.30842
H         23.98864        69.12832        -4.16360
H         21.65470        71.15967        -3.82141
H         21.63162        73.64983        -3.88114
H         24.50431        65.09770        -0.27832
H         23.72416        67.02252        -2.24224
H         26.94844        60.66211        -0.41863
H         25.74209        62.89388        -0.61770
H         29.44816        56.45542        -0.14034
H         28.18571        58.55852        -0.23697
H         31.94574        52.26098         0.09938
H         30.70365        54.36107        -0.02751
H         34.31832        48.02425         0.26139
H         33.16281        50.13882         0.20589
H         36.75308        43.67505         0.44902
H         35.50078        45.81001         0.25959
H         39.19644        39.47640         0.08201
H         37.98343        41.56877         0.37561
H         41.57708        35.29726        -0.63220
H         40.41479        37.36896        -0.25785
H         44.85684        31.89066        -0.77799
H         42.74569        33.16327        -0.91710
H         47.05037        33.02917        -0.75343
H         48.34718        35.24783        -0.67214
H         48.95854        37.59290         0.49569
H         50.87568        39.42220        -0.58164
H         52.16925        41.54945        -0.64196
H         53.39763        43.66342        -0.74045
H         54.66454        45.87944        -0.71485
H         55.89634        48.00078        -0.66536
H         57.12842        50.16758        -0.78520
H         58.36132        52.26124        -0.78306
H         59.60145        54.37542        -1.06465
H         60.88785        56.48966        -1.16532
H         62.15418        58.67002        -1.20659
H         63.39558        60.79642        -1.31769
H         64.68361        62.94265        -1.22259
H         65.90376        65.14642        -1.30550
H         67.05980        67.32233        -1.45057
H         68.26082        69.44662        -1.32763
H         69.49370        71.57381        -1.31527
H         69.49855        74.06608        -1.31717
