         621
 CSIRO Nanostructure Databank - Neutral Graphene Oxide Data Set
C          5.92488        31.49465        -1.07774
C          5.94758        32.79269        -0.65903
C          8.30791        27.33558        -2.32925
C          8.33166        28.69581        -1.98801
C          7.13584        29.42470        -1.70953
C          8.38817        31.41636        -0.98252
C          7.14642        30.75381        -1.27546
C          8.42828        32.75509        -0.58830
C          7.19024        33.48559        -0.41331
C          8.44293        35.51241         0.22783
C          7.20971        34.81513        -0.02161
C          8.45155        36.82005         0.68279
C         10.83727        23.16948        -2.53677
C         10.78001        24.51185        -2.83951
C          9.55536        25.24065        -2.66527
C         10.74560        27.42138        -2.82303
C          9.50634        26.62517        -2.60997
C         10.80741        28.75814        -2.19653
C          9.60940        29.35175        -1.80330
C         10.96368        31.39274        -1.06906
C          9.62863        30.63435        -1.10262
C         10.92067        32.83246        -0.79498
C          9.68574        33.46309        -0.43175
C         10.93046        35.55037         0.02985
C          9.68959        34.81084        -0.03347
C         10.92445        36.87795         0.43099
C          9.72820        37.46689         1.13685
C         10.86224        39.72371         1.20821
C          9.70350        38.97501         1.20434
C         10.93465        41.11105         1.51562
C         13.37785        19.23166        -0.92121
C         13.30765        20.24045        -2.05301
C         12.06870        21.08950        -2.07605
C         13.29245        23.07951        -2.84166
C         12.07896        22.42337        -2.51272
C         13.32319        24.48793        -3.25026
C         12.00895        25.22773        -3.28324
C         13.31666        27.42226        -2.94028
C         12.03067        26.72413        -3.17939
C         13.27618        28.77501        -2.58948
C         12.06559        29.44851        -2.16551
C         13.30590        31.59534        -1.85143
C         12.12122        30.80138        -1.75454
C         13.31766        32.88545        -1.29271
C         12.13652        33.53617        -0.81136
C         13.39434        35.58909        -0.22918
C         12.17682        34.90830        -0.36009
C         13.44949        36.95660         0.16745
C         12.15974        37.66293         0.33800
C         13.41544        39.68852         1.24447
C         12.13516        39.08803         0.76638
C         13.42656        41.13617         1.49171
C         12.17023        41.80982         1.61345
C         13.38805        43.85497         2.18001
C         12.18890        43.19153         1.95806
C         13.37057        45.24670         2.77013
C         15.51747        15.07779         0.45316
C         15.56864        16.29232        -0.16686
C         14.84090        17.53992         0.29203
C         15.71200        18.91779        -1.62094
C         14.52906        18.54724        -0.78165
C         15.84490        20.31841        -2.05587
C         14.57540        21.14011        -1.97783
C         15.84184        23.05259        -3.05253
C         14.52689        22.24567        -3.03834
C         15.76863        24.53575        -2.86805
C         14.59730        25.23386        -3.02612
C         15.78431        27.39469        -2.83775
C         14.57559        26.70509        -2.95469
C         15.82316        28.84360        -3.04617
C         14.49634        29.57084        -2.75712
C         15.76470        31.61872        -2.14914
C         14.56169        30.97073        -2.26914
C         15.74440        33.12045        -2.00158
C         14.62187        33.54176        -1.09147
C         15.89608        35.72226        -0.66449
C         14.67236        34.91420        -0.50089
C         15.90101        37.04520        -0.18546
C         14.66194        37.63897         0.26542
C         15.94111        39.75566         0.86261
C         14.70248        38.96855         0.91058
C         15.92886        41.11133         1.40701
C         14.65914        41.79492         1.70217
C         15.85372        43.91407         2.38556
C         14.62483        43.17680         2.04678
C         15.87542        45.40603         2.33209
C         14.59450        46.10993         2.47140
C         15.34154        48.51488         2.40150
C         14.36487        47.46482         2.61874
C         15.53745        49.72270         2.99749
C         17.85272        11.12920         2.53201
C         17.85553        12.22077         1.56619
C         16.66677        13.08904         1.36355
C         18.02941        14.83826         0.18259
C         16.71064        14.27652         0.69172
C         18.10054        16.37504         0.14795
C         16.83904        17.09720        -0.25478
C         18.24630        18.87655        -1.49252
C         16.97806        18.13492        -1.36104
C         18.30358        20.17290        -1.98771
C         17.07005        20.89142        -2.31331
C         18.45105        23.10274        -2.66115
C         17.13408        22.31660        -2.79945
C         18.25323        24.50148        -2.09026
C         16.95551        25.21390        -2.27286
C         18.31353        27.36336        -2.49437
C         16.95794        26.74191        -2.13914
C         18.38467        28.83871        -2.74022
C         17.13302        29.66603        -3.01489
C         18.30290        31.71949        -2.28474
C         17.07246        30.85988        -2.05907
C         18.25005        33.10460        -2.06010
C         17.06180        33.77272        -1.66658
C         18.28038        35.90110        -1.20465
C         17.07895        35.11970        -1.18705
C         18.33832        37.17870        -0.60668
C         17.12917        37.77958        -0.09961
C         18.39453        39.80019         0.66217
C         17.10623        39.11504         0.42570
C         18.31804        41.31348         0.71688
C         17.12360        41.81565         1.50574
C         18.41424        43.93624         2.03930
C         17.18024        43.13957         2.14213
C         18.38305        45.29270         2.24758
C         17.12971        46.02129         2.26041
C         18.33434        48.18283         2.63314
C         17.29470        47.46282         2.12443
C         18.20128        49.62628         2.95864
C         16.89117        50.38800         3.03423
C         18.14340        52.54502         2.56573
C         16.97607        51.85681         2.83593
C         18.14647        53.94819         2.29715
C         20.06711         8.07090         5.67805
C         20.10876         8.87897         4.52624
C         18.96979         9.47943         3.95969
C         20.32686        10.99746         2.50993
C         19.02996        10.50188         2.95131
C         20.44490        12.19357         1.81567
C         19.22797        12.80470         1.23457
C         20.56376        14.92009         0.72605
C         19.23218        14.26086         0.91519
C         20.68668        16.18177        -0.04262
C         19.43152        16.97182        -0.20429
C         20.80368        18.80379        -1.33165
C         19.47883        18.14333        -1.13415
C         20.77814        20.26620        -1.56183
C         19.56931        20.92040        -1.90552
C         20.74073        23.06595        -1.69575
C         19.56765        22.33829        -1.97448
C         20.69543        24.54083        -1.49163
C         19.49886        25.30029        -1.88428
C         20.76629        27.43856        -1.82362
C         19.53820        26.67168        -2.00025
C         20.77641        28.87667        -1.96433
C         19.60596        29.58273        -2.35344
C         20.77438        31.74377        -2.23389
C         19.56488        31.02624        -2.36311
C         20.80348        33.19576        -2.40425
C         19.45097        33.92066        -2.31897
C         20.76091        36.11345        -1.89587
C         19.43799        35.37432        -1.95458
C         20.78072        37.35293        -1.08218
C         19.62826        37.85854        -0.50921
C         20.86133        40.01348         0.08251
C         19.68690        39.14045         0.24057
C         20.81846        41.34276         0.54308
C         19.63942        41.91988         1.08722
C         20.84103        44.17218         1.22106
C         19.66802        43.24253         1.68570
C         20.77802        45.67096         1.32117
C         19.58648        46.18099         2.05959
C         20.85131        48.29263         2.72519
C         19.62358        47.43491         2.93730
C         20.83374        49.73519         2.93995
C         19.48326        50.43356         2.95005
C         20.70030        52.60095         2.63995
C         19.44408        51.80259         2.30856
C         20.64077        54.07668         2.40697
C         19.32542        54.68447         2.07214
C         20.50773        56.73490         1.36887
C         19.30746        56.00999         1.62231
C         20.45221        58.04884         0.88794
C         22.22351         6.28745         8.17044
C         21.09399         6.74986         7.50332
C         22.53037         8.12576         6.08236
C         21.22983         7.64494         6.41010
C         22.62380         8.93562         4.84930
C         21.43110         9.18842         3.94183
C         22.92041        10.86920         2.60538
C         21.55171        10.25843         2.89072
C         22.96484        12.25693         2.07379
C         21.71842        12.86821         1.64248
C         22.99768        14.82048         0.89648
C         21.76681        14.13998         1.05458
C         23.10030        15.94808         0.08028
C         21.92463        16.69958        -0.36738
C         23.26360        18.89959        -1.15132
C         22.00617        18.22461        -0.60441
C         23.24768        20.29152        -1.25110
C         21.98151        20.99881        -1.41364
C         23.25670        23.14221        -1.76955
C         21.96723        22.39975        -1.51098
C         23.26112        24.59889        -1.38500
C         21.97550        25.31556        -1.29658
C         23.19333        27.48961        -1.33015
C         21.97114        26.78006        -1.50486
C         23.16144        28.91712        -1.29097
C         21.96677        29.59396        -1.59783
C         23.20321        31.87996        -1.45019
C         21.94644        31.07025        -1.66316
C         23.32110        33.14658        -2.35685
C         22.04985        33.97831        -2.18593
C         23.28173        36.14678        -2.20379
C         22.03553        35.33350        -2.04738
C         23.26435        37.60002        -1.74892
C         22.09137        38.03456        -0.92178
C         23.29465        40.33002        -0.67029
C         22.12625        39.45363        -0.39456
C         23.19462        41.67330        -0.34964
C         21.95738        42.18490         0.21517
C         23.45902        44.77865         0.14543
C         21.71277        43.54470         0.27252
C         23.40123        45.89519         0.99492
C         22.06549        46.49896         1.29376
C         23.35855        48.34971         2.54041
C         22.05851        47.77392         2.06379
C         23.35319        49.84520         2.74682
C         22.05521        50.54114         2.63061
C         23.24641        52.69156         2.45904
C         22.01508        51.90776         2.53104
C         23.15141        54.13176         2.20379
C         21.89137        54.77849         2.05004
C         22.98591        56.82787         1.24779
C         21.80048        56.10123         1.56874
C         22.90565        58.16567         0.76252
C         21.62994        58.78474         0.58340
C         22.74577        60.81262        -0.19629
C         21.57356        60.11477         0.10008
C         23.50381         6.69155         7.77981
C         25.08126         7.92089         6.33985
C         23.69931         7.63632         6.74422
C         25.47002         9.12567         5.76732
C         23.70706         9.89802         4.70873
C         25.37870        11.12428         3.38443
C         24.01545        10.56685         3.57186
C         25.43735        12.39994         2.55818
C         24.14342        12.98184         2.13287
C         25.46939        15.14894         1.58084
C         24.16433        14.37133         1.66767
C         25.56507        16.14053         0.49253
C         24.44172        16.32301        -0.27659
C         25.73625        18.89463        -0.96623
C         24.52912        18.27699        -1.24568
C         25.72525        20.31562        -0.96430
C         24.49173        21.00664        -1.22126
C         25.70722        23.12300        -1.24231
C         24.49731        22.41157        -1.34081
C         25.70483        24.55657        -1.29300
C         24.44309        25.29049        -1.30501
C         25.65025        27.41607        -1.07649
C         24.44426        26.75292        -1.20181
C         25.68263        28.86913        -0.82958
C         24.38886        29.65650        -0.87643
C         25.75681        31.70404        -1.61438
C         24.48043        31.20721        -0.94644
C         25.84711        33.01851        -2.14948
C         24.63200        33.91096        -2.07355
C         25.79818        36.32025        -2.50950
C         24.61629        35.42416        -2.17939
C         25.73088        37.79371        -2.20478
C         24.51892        38.40408        -1.61024
C         25.72301        40.59569        -1.32982
C         24.53291        39.72787        -1.17953
C         25.63337        41.93545        -0.97598
C         24.50063        42.42461        -0.10304
C         25.80121        44.56124         0.34820
C         24.55879        43.93338         0.07982
C         25.83228        45.85480         0.93941
C         24.63016        46.42432         1.44132
C         25.94885        48.42004         2.43151
C         24.65596        47.63882         2.29223
C         25.83667        49.92531         2.49497
C         24.62049        50.59188         2.58294
C         25.72537        52.84836         2.54220
C         24.48840        52.04297         2.51244
C         25.64747        54.35113         2.27405
C         24.32390        54.90265         1.95947
C         25.46658        56.95480         1.14195
C         24.25541        56.21765         1.45362
C         25.36179        58.26507         0.64909
C         24.10154        58.89025         0.46058
C         23.99543        60.21952        -0.02227
C         26.61612         9.58150         5.06235
C         27.77396        11.39202         3.88341
C         26.58282        10.71912         4.18656
C         27.84481        12.61693         3.13364
C         26.66990        13.21531         2.59600
C         27.96418        15.15537         1.81981
C         26.73074        14.49023         1.99988
C         28.04584        16.46924         1.11279
C         26.80810        16.96939         0.38594
C         28.16885        18.93037        -0.36164
C         26.97983        18.05156        -0.70725
C         28.18213        20.30801        -0.61042
C         26.94844        21.02721        -0.86399
C         28.18049        23.14766        -1.05923
C         26.94236        22.42951        -1.01797
C         28.16262        24.53214        -1.26431
C         26.92591        25.22876        -1.25634
C         28.23219        27.39449        -0.85502
C         26.91856        26.67162        -0.95956
C         28.20084        28.87311        -0.94106
C         26.97460        29.58594        -0.99573
C         28.19586        31.71016        -1.28854
C         26.93834        30.95823        -1.35357
C         28.31707        32.94020        -2.07247
C         27.11269        33.48652        -2.56987
C         28.29556        36.34850        -2.13479
C         27.16953        35.75446        -2.65397
C         28.17823        37.68123        -1.49984
C         27.04208        38.51951        -2.02914
C         28.36188        40.51379        -1.23031
C         27.04090        39.96805        -1.71113
C         28.57839        41.88614        -1.41334
C         26.71041        42.88322        -1.13553
C         28.22490        44.73382        -0.30170
C         26.94471        43.98909        -0.32706
C         28.25052        45.98654         0.49477
C         27.09755        46.57545         1.02606
C         28.45248        48.26473         2.12563
C         27.16565        47.78633         1.81580
C         28.18629        50.37297         1.42269
C         27.12483        50.72850         2.49348
C         28.19232        52.95230         2.08513
C         27.00881        52.21324         2.28759
C         28.10401        54.35686         1.85731
C         26.86873        55.02866         1.79169
C         26.73743        56.33331         1.28717
C         29.06166        13.33741         3.01971
C         30.41299        15.35643         2.41999
C         29.12820        14.56934         2.36441
C         30.54452        16.53517         1.46106
C         29.39288        17.03136         0.75420
C         30.57839        18.97414        -0.28179
C         29.38354        18.25604         0.02652
C         30.65628        20.36898        -0.37556
C         29.41265        21.07333        -0.55974
C         30.67901        23.15631        -0.97992
C         29.42117        22.44466        -0.84994
C         30.68611        24.48214        -1.39735
C         29.41492        25.24670        -1.69941
C         30.67248        27.39176        -1.34350
C         29.49156        26.69636        -1.24715
C         30.69085        28.82436        -1.08743
C         29.45606        29.51560        -0.97755
C         30.75577        31.64569        -1.20345
C         29.48761        30.96979        -0.96416
C         30.75529        33.00300        -1.57469
C         29.59135        33.52761        -2.18636
C         30.60142        36.08023        -1.19681
C         29.60616        35.74879        -2.11611
C         30.60951        37.42626        -0.41686
C         29.36321        38.26775        -0.78481
C         30.72697        40.38096        -0.60427
C         29.46926        39.74649        -0.82143
C         30.78626        41.79576        -0.49748
C         29.64362        42.56734        -0.82046
C         30.78332        44.57223         0.12784
C         29.57179        44.01804        -0.55985
C         30.79567        46.00451         0.52556
C         29.50691        46.75600         0.44709
C         30.86627        48.76641         1.43957
C         29.57080        48.06388         1.21127
C         30.78120        50.15136         1.72426
C         29.56625        50.90084         1.78473
C         29.48290        52.27062         2.01812
C         31.79719        17.15109         1.57302
C         33.12846        19.27069         1.03326
C         32.27302        18.21936         0.75445
C         33.12551        20.50480         0.26525
C         31.91413        21.07615        -0.30369
C         33.15090        23.14661        -0.78420
C         31.91841        22.44898        -0.67026
C         33.19069        24.41197        -1.44176
C         31.94921        25.16046        -1.73426
C         33.20032        27.50158        -1.52183
C         31.95151        26.72950        -1.73922
C         33.17175        28.84544        -1.07352
C         31.91988        29.53602        -0.99199
C         33.18177        31.71421        -0.88045
C         31.95840        30.96307        -0.98265
C         33.14007        33.14469        -0.83880
C         31.89658        33.80390        -1.20231
C         33.33893        36.10827        -0.37597
C         31.59843        35.13337        -0.80220
C         33.20396        37.52650        -0.64162
C         31.94563        38.19769        -0.58365
C         33.20936        40.32547        -0.52478
C         31.96015        39.61009        -0.56100
C         33.25018        41.74288        -0.33347
C         32.04125        42.47909        -0.25880
C         33.28534        44.56812         0.18817
C         32.06609        43.86418        -0.02897
C         33.26250        45.97332         0.53739
C         32.08989        46.70887         0.72669
C         32.06191        48.07356         1.15752
C         34.30863        21.26177         0.24352
C         35.62874        23.20533        -0.57056
C         34.38777        22.52864        -0.38795
C         35.67928        24.42309        -1.27406
C         34.44113        24.88352        -1.81426
C         35.69300        27.49668        -1.36574
C         34.47094        26.99555        -1.86400
C         35.62927        28.84021        -0.87585
C         34.39461        29.56338        -0.90658
C         35.63292        31.72210        -0.64577
C         34.40378        30.99601        -0.76458
C         35.60711        33.13713        -0.53964
C         34.38014        33.85651        -0.61917
C         35.68744        36.00034        -0.99429
C         34.42517        35.30685        -0.66373
C         35.67605        37.50038        -1.06624
C         34.41450        38.23411        -0.84892
C         35.70646        40.33739        -0.60286
C         34.44186        39.63242        -0.68322
C         35.71153        41.70539        -0.35538
C         34.49389        42.44677        -0.21505
C         34.48932        43.83559         0.05771
C         36.85076        25.24030        -1.48253
C         38.15617        27.25637        -1.90214
C         36.90386        26.65350        -1.56830
C         38.50052        28.56353        -1.44851
C         36.78880        29.58342        -0.49648
C         38.18972        31.61662        -0.65062
C         36.86419        30.97035        -0.55498
C         38.20237        33.12133        -0.54442
C         36.90337        33.86124        -0.33853
C         38.17699        36.05961        -0.87282
C         36.91647        35.39560        -0.35400
C         38.17031        37.43417        -1.00253
C         36.95915        38.22006        -0.88029
C         36.94049        39.58406        -0.70219
C         39.23117        29.58165        -2.02756
C         40.39005        31.81648        -1.97713
C         39.37025        30.90919        -1.40261
C         40.41554        33.15425        -1.75770
C         39.35361        33.88504        -1.09657
C         39.32948        35.26155        -1.17985
O         27.59105        26.88032         0.36653
O         19.88817        36.22163        -3.06299
O         20.05069        33.63126        -3.59281
O         16.57961        43.26832         3.47357
O         20.82062        43.52600         2.53022
O         18.55113        11.96207         0.26320
O         28.19706        37.74843        -0.02956
O         22.50761        38.26178         0.45434
O         10.47929        30.61329         0.08890
O         24.92768        29.19686         0.40501
O         22.33748        44.41342        -0.61190
O         22.22727        31.87733        -0.40185
O         37.72577        33.44978         0.81192
O         19.71949        46.36650         0.60285
O         25.43226        47.59773         3.53702
O         12.60369        24.73935        -4.52380
O         17.56423        49.88222         4.26872
O         25.54448        37.28518        -3.57495
O         29.78812        34.66886        -2.99305
O         21.16510        24.89103        -0.13146
O         35.75151        36.62861        -2.29310
O         24.47648        10.13138         5.84744
O         19.74177        15.06437         1.99319
O         28.73403        31.69060         0.07582
O         17.31032        24.56818        -0.97151
O         18.53054        27.85764        -3.85145
O         28.96545        44.85577        -1.57497
O         24.54633        15.39640         2.68868
O         22.37340         9.84717         1.73681
O         27.25722        39.48051        -3.09687
O         27.15108        17.49038         1.70998
O         12.09168        38.80036        -0.67058
O         27.63159        42.59866        -2.15055
O         25.69986        11.08424         1.95016
O         19.20122        39.11731         1.65081
O         31.72511        18.23095        -0.55108
O         20.62512        53.49671         3.77483
O         31.89551        25.94625        -2.97791
O         14.99802        29.34763        -4.12365
O         30.55934        44.94076         1.54285
O         14.10215        38.91829         2.27816
O         20.28594        17.91797        -2.35787
O         24.69396        34.74442        -0.87319
O         23.29250        48.89152         3.87635
O         22.33661         8.09188         3.67010
O         23.40444        32.67365        -3.66243
O         37.92979        28.84881        -0.18078
O         29.33560        48.02627        -0.23206
O         32.30437        35.51330         0.35058
O         16.30149        48.15586         1.43563
O         14.94652        33.69299         0.32129
O         16.20006        17.90593        -2.56431
O         16.17924        17.93894         0.85115
O         27.86170        50.18665         0.26089
O         20.19040        50.27642         4.18824
O         25.76600        53.83765         3.63898
O         34.52617        25.91702        -2.75698
O         11.22294        27.38497        -4.21589
O         24.55425        16.91814        -1.53172
O         27.22414        34.59805        -3.43337
O         18.81074        17.17546         1.11885
O         39.28527        30.98972         0.05401
O         21.91618        47.76840         0.56882
O         16.65316        22.55376        -4.17624
O         23.02597        37.22719        -3.14287
O         18.15263        14.44047        -1.20756
H         18.11766        13.45568        -1.23117
O         21.90597        18.76143         0.74961
H         22.59439        18.34651         1.31141
O         19.48278        51.54157         0.87348
H         19.19379        52.35099         0.40152
O         29.28101        25.31215        -3.16589
H         30.17008        25.58414        -3.51089
O         14.35480        21.64073        -4.34533
H         15.22041        21.72850        -4.81883
O         18.05042        41.69908        -0.68526
H         17.99967        42.67699        -0.73621
O         12.16931        45.92917         2.40451
H         12.16276        46.04526         1.43243
O         24.87360        41.97318         1.25503
H         24.80246        40.99430         1.28564
O         18.97503        23.35600        -3.99081
H         18.87017        22.54634        -4.53304
O         31.54231        14.48427         2.26417
H         31.53599        14.13375         1.35003
O         17.31802        30.24615        -4.31717
H         17.46562        29.51249        -4.95246
O         30.50199        37.17034         0.99243
H         29.55304        37.00378         1.19080
O         24.62674        31.69802         0.40349
H         25.02956        30.97181         0.93757
O         15.37762        33.65361        -3.31735
H         15.99903        33.28183        -3.98011
O         27.67148        50.64194         3.84714
H         27.11941        51.21718         4.42000
O         36.78108        35.80901         1.03730
H         37.32656        35.18353         1.56956
O         14.57996        21.82426        -0.70190
H         14.62910        21.15279         0.01155
O         13.31290        19.46816        -3.27614
H         13.51290        20.09621        -4.01590
O         19.62372        46.97675         4.31422
H         19.61360        47.76996         4.89338
O         28.81848        48.61464         3.37418
H         28.04774        48.59985         3.98102
O         27.32807        17.33054        -1.91732
H         27.37324        17.96888        -2.65892
O         16.75538        27.06584        -0.73743
H         16.98265        26.25598        -0.21888
O         23.31528        23.16855        -3.25519
H         24.20118        23.50678        -3.50911
O          9.88628        37.04918         2.56228
H          9.84764        36.06836         2.58500
O         17.13702        30.31672        -0.71273
H         17.02556        31.04884        -0.07011
H          4.96748        30.99081        -1.27490
H          5.00700        33.34412        -0.51401
H          7.35239        26.79026        -2.31674
H          6.16914        28.92536        -1.87335
H          6.26159        35.35423         0.12363
H          7.49738        37.33082         0.88381
H          9.91844        22.65002        -2.22582
H          8.63909        24.66430        -2.46541
H          8.74648        39.45558         1.46067
H         10.00763        41.65396         1.75351
H         12.50416        19.03190        -0.28127
H         11.10117        20.60722        -1.86805
H         11.24077        43.72805         2.10795
H         13.32603        45.11757         3.88889
H         14.55860        14.70215         0.84440
H         14.05310        17.43783         1.07227
H         13.34912        47.75461         2.93639
H         14.80286        50.10664         3.72156
H         16.90130        10.86260         3.01654
H         15.69705        12.71124         1.72528
H         16.03496        52.42706         2.88747
H         17.18027        54.47369         2.25022
H         19.08218         7.77929         6.07464
H         17.98103         9.22516         4.37125
H         18.34242        56.49841         1.42063
H         19.47163        58.52471         0.73755
H         22.11282         5.57256         8.99777
H         20.09476         6.39266         7.79027
H         22.68237        61.84415        -0.57025
H         20.59515        60.59617        -0.04014
H         24.38170         6.27482         8.29398
H         25.82055         7.11960         6.49031
H         26.27834        58.82295         0.40543
H         24.91071        60.78174        -0.25644
H         27.58737         9.08582         5.21764
H         28.70341        11.04271         4.35987
H         29.01864        54.90480         1.58665
H         27.63719        56.88352         0.97382
H         29.97901        12.92516         3.46503
H         30.49042        15.76867         3.46599
H         31.71997        50.70326         1.89825
H         30.39653        52.87819         2.11744
H         32.44705        16.79806         2.38920
H         33.78936        19.22047         1.91178
H         34.23035        46.47169         0.70309
H         33.02095        48.60309         1.26885
H         35.22497        20.82365         0.66641
H         36.54591        22.76728        -0.15024
H         36.67079        42.23567        -0.25808
H         35.45129        44.35396         0.18846
H         37.82460        24.72581        -1.43409
H         38.88772        26.66121        -2.47073
H         39.11257        37.96040        -1.22412
H         37.88826        40.13228        -0.58829
H         39.66447        29.44401        -3.02851
H         41.18022        31.35980        -2.59205
H         41.23032        33.75197        -2.19402
H         40.20300        35.77382        -1.61413
