         410
 CSIRO Nanostructure Databank - Neutral Graphene Oxide Data Set
C         28.04362        27.34607        -1.12716
C         27.82210        28.65293        -0.50373
C         26.67722        29.48264        -0.92820
C         27.73373        31.60524        -0.15817
C         26.63148        30.81843        -0.75899
C         27.83742        33.06517        -0.38729
C         26.68615        33.80645        -0.82191
C         27.78856        35.95428        -0.37149
C         26.66402        35.16689        -0.87745
C         27.85266        37.42436        -0.57075
C         26.67908        38.15541        -0.78827
C         27.83656        40.25427        -0.38970
C         26.67042        39.55319        -0.67006
C         27.79494        41.69485         0.09082
C         26.57317        42.50735        -0.27765
C         27.85694        44.59517        -0.04173
C         26.61978        43.85602        -0.26532
C         27.85852        46.00744         0.07043
C         30.40845        27.34903        -0.43830
C         29.23387        26.70444        -0.98493
C         30.36849        28.71199        -0.12211
C         29.06761        29.37733         0.02972
C         30.30227        31.60276         0.11959
C         29.02334        30.86546         0.17937
C         30.29747        33.01265         0.00995
C         29.06084        33.71626        -0.17988
C         30.36157        35.90772        -0.30562
C         29.08373        35.19098        -0.10580
C         30.33518        37.36350        -0.30378
C         29.07801        38.09733        -0.34825
C         30.29253        40.23357        -0.08535
C         29.08101        39.53601        -0.29878
C         30.35211        41.69076        -0.25542
C         29.05695        42.45225        -0.27043
C         30.31909        44.58934         0.13249
C         29.07954        43.90741        -0.01292
C         30.30527        46.02697         0.18932
C         29.05049        46.69764         0.16746
C         32.93912        24.56006        -0.39499
C         31.72820        25.24643        -0.48892
C         32.86845        27.36366        -0.03787
C         31.66624        26.64061        -0.34370
C         32.82722        28.76687         0.15860
C         31.57194        29.46344         0.11192
C         32.73571        31.65705         0.61893
C         31.51449        30.87511         0.22604
C         32.75730        33.05589         0.04005
C         31.56274        33.74008        -0.09904
C         32.79962        35.88885        -0.69410
C         31.54197        35.17892        -0.36901
C         32.79106        37.41277        -0.59457
C         31.53510        38.06717        -0.21815
C         32.83926        40.26632         0.21164
C         31.53546        39.49691         0.13125
C         32.82439        41.74314         0.11921
C         31.60015        42.44093         0.00472
C         32.79064        44.53423         0.51086
C         31.54635        43.84549         0.16560
C         32.78445        46.09407         0.50742
C         31.53184        46.76973         0.17625
C         32.80850        48.82305        -0.16857
C         31.60425        48.13908        -0.16230
C         35.48608        23.14760        -0.55749
C         35.42188        24.51104        -0.17295
C         34.14387        25.23017        -0.15131
C         35.31041        27.35140         0.36046
C         34.11596        26.64786         0.06144
C         35.30516        28.76015         0.49216
C         34.05350        29.50483         0.39046
C         35.23699        31.67847         0.74446
C         34.02408        30.89260         0.47284
C         35.30202        33.07753         0.30267
C         34.07157        33.68975        -0.22727
C         35.36831        35.90155        -0.29710
C         34.11902        35.16484        -0.60034
C         35.40087        37.37754        -0.40494
C         34.09845        38.16421        -0.50492
C         35.31137        40.26174         0.07240
C         34.11865        39.57645        -0.06683
C         35.30873        41.71318         0.23445
C         34.06455        42.43530         0.18095
C         35.28390        44.58017         0.30244
C         34.07664        43.85520         0.30426
C         35.28420        46.03452         0.28422
C         34.06400        46.77218         0.28175
C         35.30876        48.88585         0.06280
C         34.05704        48.16511         0.04368
C         35.34839        50.30069         0.07291
C         37.90583        23.10961        -0.26620
C         36.68645        22.46404        -0.58011
C         37.86720        24.49262         0.06967
C         36.61814        25.17755         0.14077
C         37.83304        27.33528         0.55661
C         36.55122        26.56620         0.73599
C         37.77979        28.76326         0.61550
C         36.53852        29.45153         0.66669
C         37.79369        31.66219         0.56005
C         36.56675        30.90950         0.85222
C         37.76966        33.06114         0.41715
C         36.51644        33.76754         0.26081
C         37.78587        35.92990         0.16763
C         36.53187        35.20951         0.02524
C         37.79300        37.36712         0.19513
C         36.60387        38.10313         0.03110
C         37.76032        40.24689         0.37538
C         36.59207        39.54891         0.11225
C         37.77147        41.71403         0.72476
C         36.50317        42.42724         0.35878
C         37.76582        44.53438         0.15808
C         36.52754        43.85623         0.29314
C         37.73555        45.97449        -0.12943
C         36.50015        46.73250         0.12598
C         37.78208        48.86751         0.22724
C         36.53549        48.15881         0.11919
C         37.76245        50.27240         0.38471
C         36.54252        50.97358         0.25236
C         40.42870        20.33562        -0.61366
C         39.22999        21.00848        -0.58425
C         40.37332        23.08492         0.02865
C         39.17060        22.39752        -0.27599
C         40.35426        24.50421         0.27892
C         39.10078        25.20863         0.28520
C         40.30802        27.37233         0.44751
C         39.03932        26.62567         0.43777
C         40.24795        28.80306         0.86041
C         38.98933        29.53721         0.61826
C         40.29480        31.63394         0.15544
C         39.00936        30.92048         0.50498
C         40.25086        33.11987         0.38356
C         39.02517        33.78939         0.34404
C         40.25146        35.93663         0.25046
C         39.00566        35.22799         0.28697
C         40.23094        37.36618         0.18591
C         39.04200        38.06619         0.27642
C         40.25703        40.31183         0.18115
C         39.05192        39.52799         0.64274
C         40.26353        41.70596         0.20973
C         39.03649        42.44279         0.32512
C         40.27537        44.56517         0.00578
C         39.01827        43.83543         0.14835
C         40.30294        45.97125        -0.10979
C         39.03771        46.72741        -0.27164
C         40.25676        48.82400         0.12995
C         39.04641        48.17050         0.07256
C         40.32698        50.18889         0.65430
C         38.99995        50.97459         0.77892
C         40.30495        53.05757         0.89937
C         39.10507        52.44268         0.77247
C         42.88480        20.31653        -0.38379
C         41.64888        21.00676        -0.32076
C         42.85599        23.05603         0.34633
C         41.62669        22.39077         0.02450
C         42.83607        24.48090         0.61858
C         41.58800        25.15877         0.52793
C         42.78119        27.31904         1.21364
C         41.60482        26.62994         0.55234
C         42.79658        28.78480         0.82617
C         41.52152        29.54863         0.98693
C         42.71812        31.70616         0.78687
C         41.54248        30.99925         0.71288
C         42.72711        33.13696         0.59057
C         41.49701        33.83017         0.42828
C         42.74988        35.96794         0.25640
C         41.49115        35.25465         0.31974
C         42.76803        37.38038         0.08191
C         41.49383        38.07766        -0.10028
C         42.78345        40.28917         0.01338
C         41.49807        39.59544        -0.12948
C         42.75516        41.72298         0.07675
C         41.51881        42.42488         0.07850
C         42.75585        44.56117        -0.01287
C         41.51588        43.84858         0.04588
C         42.74042        45.97900        -0.14668
C         41.52833        46.68225        -0.18120
C         42.77911        48.90335        -0.10924
C         41.49125        48.18379        -0.46862
C         42.80355        50.27009         0.27222
C         41.57925        50.95265         0.57208
C         42.78312        53.04516         0.89877
C         41.56249        52.33717         0.83358
C         44.06664        20.97253        -0.10096
C         45.34256        22.97380         0.69900
C         44.07220        22.33315         0.28461
C         45.32751        24.49073         0.99519
C         44.05490        25.20935         0.82469
C         45.30820        27.32924         1.09069
C         44.09804        26.62351         0.94692
C         45.31181        28.79969         1.31892
C         44.06547        29.53921         0.94370
C         45.29321        31.76405         0.98706
C         43.98951        31.01980         1.14123
C         45.19921        33.15444         0.54193
C         43.97867        33.83688         0.50272
C         45.21085        35.97342         0.11966
C         43.97464        35.26545         0.28009
C         45.22019        37.39359         0.02460
C         43.97743        38.10112         0.00973
C         45.24385        40.22102         0.04899
C         43.98097        39.54728        -0.01720
C         45.22732        41.67039         0.28106
C         43.98291        42.44557         0.11743
C         45.26814        44.57467        -0.03775
C         44.00292        43.84812         0.03506
C         45.28779        45.97372        -0.21052
C         44.01157        46.68549        -0.42534
C         45.33368        48.91218        -0.35302
C         44.01673        48.20251        -0.46182
C         45.32969        50.37639         0.05121
C         44.02708        51.01826         0.36894
C         43.98947        52.37914         0.69661
C         47.79177        23.12499         0.47544
C         46.64243        22.42256         0.30158
C         47.81718        24.51634         0.86962
C         46.60203        25.23350         0.96182
C         47.79830        27.40196         1.12712
C         46.57644        26.66243         1.05055
C         47.86763        28.82237         1.11211
C         46.60826        29.58178         1.30077
C         47.73289        31.64703         0.52928
C         46.58065        31.01793         0.89564
C         47.70161        33.02461        -0.01922
C         46.40273        33.79967         0.01221
C         47.65591        35.93369        -0.23125
C         46.43765        35.26732        -0.01299
C         47.67751        37.36681        -0.25998
C         46.46507        38.08589        -0.10013
C         47.71872        40.23737        -0.18044
C         46.46292        39.52657        -0.04388
C         47.72893        41.62741        -0.22232
C         46.55047        42.40910         0.15220
C         47.71504        44.56325        -0.17135
C         46.50907        43.87100        -0.05597
C         47.74634        45.97837        -0.12259
C         46.51841        46.69739        -0.17882
C         47.78152        48.79802         0.09407
C         46.56646        48.12890        -0.15346
C         47.74224        50.18948         0.50013
C         46.58926        50.89820         0.59960
C         50.31335        24.55350         1.00214
C         49.06589        25.19979         1.04093
C         50.39304        27.42602         1.09627
C         49.04283        26.64425         1.28211
C         50.30764        28.84397         0.73042
C         49.07339        29.52403         0.87511
C         50.22765        31.64636         0.06185
C         49.08568        31.04148         0.85370
C         50.19308        33.04519        -0.28626
C         48.94862        33.79925        -0.18010
C         50.05869        35.89760        -0.91157
C         48.87958        35.16783        -0.39759
C         50.12623        37.36925        -0.74497
C         48.92551        38.08176        -0.44832
C         50.19309        40.18417        -0.58010
C         48.94787        39.49606        -0.41583
C         50.23655        41.61428        -0.52483
C         48.96008        42.34575        -0.57528
C         50.24529        44.51354        -0.12654
C         48.97505        43.84600        -0.45209
C         50.22177        45.88564         0.13322
C         49.00257        46.65780         0.00844
C         50.28930        48.72446         0.34403
C         49.01979        48.06193         0.14348
C         51.52115        25.24697         0.88046
C         52.76182        27.35509         0.35530
C         51.58557        26.64626         0.75709
C         52.70703        28.77304         0.14943
C         51.48213        29.50401         0.28471
C         52.62249        31.54713        -0.51233
C         51.43287        30.90897        -0.07324
C         52.56849        32.91534        -1.12686
C         51.34278        33.69002        -0.74349
C         52.61835        35.83505        -1.25298
C         51.32958        35.10963        -1.13000
C         52.54011        37.30575        -1.44445
C         51.33638        38.04176        -0.96512
C         52.64439        40.18301        -0.90776
C         51.39601        39.46191        -0.82985
C         52.67133        41.59328        -0.68688
C         51.43937        42.32459        -0.52782
C         52.69155        44.42628        -0.15239
C         51.46694        43.76100        -0.24488
C         52.79151        45.76078         0.42683
C         51.43969        46.56876         0.57944
C         51.43499        48.03278         0.57992
C         55.15914        27.35647        -0.12331
C         54.00610        26.67619         0.18126
C         55.13889        28.76931        -0.31445
C         53.90326        29.46725        -0.20685
C         55.08488        31.58526        -0.71257
C         53.86417        30.87231        -0.48284
C         55.05549        33.03267        -0.83068
C         53.84935        33.70747        -0.98677
C         55.11366        35.81788        -1.46618
C         53.81439        35.13910        -1.21322
C         55.13440        37.32971        -1.66741
C         53.83875        38.08687        -1.59015
C         55.10659        40.16979        -1.01074
C         53.87289        39.50212        -1.14405
C         55.13347        41.58510        -0.79045
C         53.91226        42.28372        -0.70562
C         55.24203        44.48577        -0.52080
C         53.91205        43.75745        -0.64195
C         55.23727        45.84775         0.05764
C         54.09670        46.45505         0.43333
C         56.32223        29.48608        -0.62123
C         56.29622        30.86195        -0.78369
C         56.29255        33.78853        -0.74978
C         56.33292        35.10633        -1.04249
C         56.36817        38.09454        -1.41483
C         56.34293        39.41707        -1.14334
C         56.37906        42.30242        -0.58639
C         56.43882        43.64450        -0.39832
O         32.20034        39.77063         1.46309
O         45.45412        49.97082        -1.35870
O         45.92220        29.24741         2.56375
O         34.91004        37.92768        -1.69367
O         46.86676        33.13209        -1.23394
O         43.55307        29.12223        -0.37088
O         32.66845        36.71885        -1.88488
O         46.00355        42.04981         1.47656
O         45.29295        23.48060         2.06640
O         29.67184        42.09647        -1.53590
O         39.63812        50.35405         1.94102
O         35.85184        31.39231         2.04151
O         41.17552        27.19073        -0.73250
O         43.94296        47.41238        -1.71887
O         54.54600        44.39866        -1.81067
O         49.84683        27.10195         2.40710
O         28.14766        28.68484         0.92078
O         48.89687        43.20508        -1.78481
O         44.64360        31.53981         2.31749
O         34.24107        34.13563        -1.63206
O         38.29836        46.34298        -1.47009
O         52.09655        45.92235         1.70832
O         40.78824        29.12956         2.19734
O         50.42565        35.42982        -2.26398
O         41.40994        38.80077        -1.38642
O         28.23463        35.65381         0.99881
O         28.10192        31.28077         1.22761
O         55.22790        36.42730        -2.80514
O         52.98603        37.83281        -2.74437
O         32.73023        45.31280         1.74605
O         27.81162        41.61345         1.55313
H         27.03577        41.08699         1.83878
O         41.34943        48.32297        -1.91867
H         42.18691        47.97349        -2.31180
O         52.41401        32.67853        -2.58542
H         52.20200        33.54333        -3.00139
O         37.79288        41.76524         2.23080
H         36.89629        41.51052         2.54128
O         49.34060        31.46365         2.24634
H         48.74446        30.94326         2.82786
O         42.55801        27.21121         2.63971
H         43.31354        27.61622         3.11511
O         36.43356        26.35225         2.19608
H         35.60356        25.85279         2.35166
O         39.22700        39.49688         2.11700
H         38.89208        40.36843         2.45889
O         32.61713        31.87469         2.08302
H         32.68232        30.99914         2.52133
O         40.39809        31.46195        -1.31212
H         41.19273        31.95180        -1.61484
H         27.22768        26.88775        -1.70534
H         25.84718        28.97301        -1.44173
H         25.75358        31.35962        -1.13959
H         25.79607        33.25668        -1.15616
H         25.80097        35.67786        -1.32601
H         25.72867        37.63616        -0.96893
H         25.70848        40.07696        -0.75526
H         25.60858        42.00288        -0.43518
H         25.70439        44.44044        -0.44491
H         26.90423        46.55281         0.05355
H         29.34372        25.70187        -1.42072
H         29.02518        47.79309         0.24458
H         32.92481        23.47038        -0.52505
H         30.81428        24.66802        -0.67609
H         32.79582        49.89553        -0.40286
H         30.68579        48.68859        -0.41031
H         34.57261        22.60534        -0.83333
H         34.41892        50.88122         0.00914
H         36.67572        21.40318        -0.86159
H         36.52809        52.06887         0.33026
H         40.45718        19.26644        -0.86828
H         38.31000        20.45575        -0.81443
H         40.35314        54.15543         0.95206
H         38.19124        53.04800         0.69257
H         42.89335        19.25064        -0.65209
H         42.77564        54.12509         1.10114
H         45.01022        20.41202        -0.13977
H         44.92573        52.95165         0.74689
H         48.74195        22.64529         0.20344
H         46.68924        21.42455        -0.15602
H         48.66629        50.64858         0.87686
H         46.60237        51.88791         1.07727
H         50.35406        23.45616         0.97660
H         50.32852        49.82203         0.34540
H         52.43528        24.64928         0.76326
H         52.36642        48.57168         0.80164
H         56.11150        26.81658        -0.22493
H         54.05385        25.58886         0.32573
H         56.20300        46.36111         0.18043
H         54.13552        47.45673         0.88483
H         57.27175        28.93920        -0.71082
H         57.23685        31.38507        -1.00149
H         57.21805        33.27400        -0.45817
H         57.29082        35.64349        -1.02889
H         57.33248        37.58527        -1.54686
H         57.29993        39.94134        -1.02675
H         57.31153        41.72878        -0.50187
H         57.39048        44.12281        -0.12252
