         264
 CSIRO Nanostructure Databank - Neutral Graphene Oxide Data Set
C        -11.04298         0.62064        -1.33091
C         -9.85537         1.39628        -0.89081
C         -8.82257         0.67049        -0.08251
C         -7.77239         1.45631         0.65029
C         -6.51965         0.66139         0.96760
C         -5.21786         1.37296         1.23442
C         -3.91397         0.63402         1.13507
C         -2.62590         1.41065         1.29677
C         -1.31150         0.76992         0.91101
C         -0.06300         1.45365         1.41684
C          1.22921         0.70043         1.54926
C          2.51494         1.46755         1.67517
C          3.85090         0.73586         1.59166
C          5.14341         1.49085         1.53658
C          6.42193         0.70392         1.31657
C          7.71561         1.47016         1.11271
C          9.01609         0.70971         0.85662
C         10.33426         1.46607         0.62575
C         11.22308         0.81824        -0.40122
C         -9.82275         2.85701        -0.83432
C         -8.72529         3.56552        -0.31581
C         -7.68812         2.91367         0.40824
C         -6.51405         3.67281         0.89622
C         -5.24289         2.89249         1.24519
C         -3.94196         3.53933         0.82050
C         -2.63836         2.91137         1.24530
C         -1.34000         3.49977         0.71564
C         -0.06207         2.94262         1.28820
C          1.22306         3.77929         1.33837
C          2.52122         2.92136         1.24384
C          3.82992         3.64777         1.03827
C          5.15980         2.99860         1.37903
C          6.44783         3.71309         1.09094
C          7.61828         2.88674         0.47354
C          8.95737         3.61491         0.51001
C         10.12783         2.95524         0.43329
C         -8.67345         5.00970        -0.51115
C         -7.58922         5.76576        -0.16838
C         -6.40516         5.17699         0.56403
C         -5.13349         5.68192        -0.17159
C         -3.88599         4.88545         0.17164
C         -2.56412         5.60765         0.18554
C         -1.33445         4.77654        -0.05410
C         -0.01383         5.46322        -0.31831
C          1.25163         4.89243         0.28493
C          2.49641         5.74402         0.32120
C          3.79861         5.13520         0.74408
C          5.09723         5.80480         0.34950
C          6.41901         5.15225         0.61354
C          7.66926         5.76747         0.06759
C          8.96081         5.13882         0.53999
C         -7.46864         7.17680        -0.48520
C         -6.29258         7.86734        -0.31754
C         -5.11624         7.14143         0.30793
C         -3.78129         7.88788         0.22249
C         -2.49825         7.09302         0.14212
C         -1.41501         7.68551        -0.77087
C         -0.07887         6.90291        -0.81032
C          1.21580         7.64754        -0.88962
C          2.49653         6.88897        -0.65105
C          3.76875         7.52521        -1.07895
C          5.08068         6.89617        -0.68404
C          6.36488         7.58931        -1.00641
C          7.63542         7.00058        -0.49460
C         -6.14551         9.24882        -0.73580
C         -4.97101         9.92831        -0.70954
C         -3.71584         9.31848        -0.21611
C         -2.38491         9.93116        -0.51002
C         -1.23766         9.19787        -0.59952
C          0.08209         9.81959        -0.69923
C          1.25134         9.12701        -0.79526
C          2.64060         9.75984        -0.75012
C          3.69313         8.96870        -1.59637
C          5.05676         9.63969        -1.57442
C          6.23684         9.02368        -1.37789
C        -11.19780        -0.69022        -1.08033
C        -10.34889        -1.49429        -0.11488
C         -9.02705        -0.79128         0.24342
C         -7.73634        -1.54570         0.34537
C         -6.44314        -0.82139         0.65443
C         -5.12259        -1.48364         0.40505
C         -3.86346        -0.61782         0.25342
C         -2.56470        -1.43229         0.45432
C         -1.27086        -0.63567         0.39992
C          0.05709        -1.36413         0.37456
C          1.35705        -0.57960         0.74160
C          2.51310        -1.45143         1.20744
C          3.83767        -0.77670         1.40550
C          5.06116        -1.49425         0.90814
C          6.36769        -0.77278         1.00641
C          7.55566        -1.31079         0.26154
C          8.88969        -0.68085         0.40925
C          9.96453        -1.29907        -0.31139
C         11.13205        -0.49338        -0.67892
C        -10.18396        -2.98847        -0.58481
C         -8.93367        -3.75051        -0.13070
C         -7.68775        -2.92949        -0.22064
C         -6.37951        -3.57742        -0.50576
C         -5.09516        -2.79998        -0.32838
C         -3.79732        -3.52978        -0.42772
C         -2.55642        -2.90187         0.16165
C         -1.27124        -3.57150        -0.31902
C          0.01745        -2.85953         0.18549
C          1.18356        -3.66212         0.69951
C          2.46990        -2.93048         0.92463
C          3.71838        -3.53658         0.36113
C          4.99139        -2.75988         0.39220
C          6.15436        -3.41471        -0.28358
C          7.42599        -2.63316        -0.43747
C          8.63445        -3.37514        -1.00825
C          9.91069        -2.61855        -0.75008
C         -8.86904        -5.10710        -0.10771
C         -7.57955        -5.86159        -0.43225
C         -6.33739        -5.03753        -0.13440
C         -5.01738        -5.69097         0.04823
C         -3.85847        -5.03732        -0.73932
C         -2.56797        -5.79315        -0.42853
C         -1.31230        -5.07418        -0.08362
C         -0.01807        -5.84843        -0.02877
C          1.20319        -5.14672         0.45110
C          2.53712        -5.83800         0.44124
C          3.72918        -5.01016         0.07692
C          5.04881        -5.72343         0.03980
C          6.21438        -4.91132        -0.44277
C          7.51191        -5.61267        -0.67454
C          8.64378        -4.88437        -0.80349
C         -7.43970        -7.33268        -0.05551
C         -6.24521        -7.95350         0.15702
C         -5.02556        -7.15394         0.50512
C         -3.77501        -7.95689        -1.13059
C         -2.48848        -7.22278        -0.89251
C         -1.15644        -7.92212        -0.99069
C          0.10869        -7.18603        -0.70814
C          1.43117        -7.94194        -0.61165
C          2.55469        -7.29682         0.17592
C          3.79267        -7.91869        -0.41656
C          5.09200        -7.21889        -0.02400
C          6.44748        -7.92480        -0.21280
C          7.40661        -7.08682        -1.09001
C         -6.08856        -9.41983         0.26057
C         -5.03144       -10.19971        -0.07051
C         -3.75553        -9.94181        -0.83793
C         -2.48796        -9.82228        -0.22362
C         -1.20516        -9.45949        -0.97466
C          0.09604       -10.06657        -0.42563
C          1.29728        -9.42312        -0.34043
C          2.59268       -10.09673        -0.20540
C          3.78872        -9.42280        -0.27862
C          5.08222       -10.05477        -0.49797
C          6.24410        -9.36770        -0.63422
O          3.16403         2.94645        -0.06838
O          2.60293        -6.83999         1.52430
O          5.82662        -4.05768        -1.56275
O         -8.59767        -1.33298         1.51685
O          5.13858        -6.51907         1.25989
O         -0.28081         2.30204         2.57217
O         -1.42243         3.51533        -0.74983
O          0.39572        -1.97416        -0.92042
O          0.55519         7.11890        -2.09051
O         -3.18848        -7.49138        -2.19423
O          3.08142        -1.32385         2.53671
O         -4.29590        -2.72904        -1.56057
O          5.99865         3.56733         2.44895
O         -2.63705         2.22588         2.50042
O          5.84526         6.10528         1.57544
O         -2.60856        -2.41995         1.52419
O         -6.05911         3.44307         2.28209
O         -2.23244         6.39970         1.39685
O         -3.90474         3.67524        -0.64913
O          3.09060         6.56121        -1.94910
O         -7.49539         0.99194         1.99806
O          0.35009        -5.88128         1.38249
O          7.21529         2.73296        -0.84371
O          6.63241        -0.31183         2.34807
O         -5.39076         6.98751         1.74214
O         -7.16609        -3.05731        -1.62403
O          3.41612        -4.08820        -0.98899
O         -5.71832        -1.56274         1.70806
O          0.86630         4.57323        -1.06545
O          1.81378         0.95090         2.84621
O         -2.00589         7.63303        -2.04719
O          7.19859        -1.40097        -1.19106
O          8.56667         1.17774         2.21344
O         -2.20147        -5.55395         0.96168
O         -0.39352        -7.28535        -2.07456
O         -4.27195        -7.51868         1.40408
O         -3.74225         8.94444         1.22528
O         -4.62424         0.66811         2.38698
O          3.51715        -7.64621        -1.84403
O          1.71990        -3.49992         2.04807
O          5.77908         6.60001        -1.93755
O          2.04274        -7.84788        -1.98460
O         -5.66402        -5.00406         1.17234
O         -6.34923         5.87501         1.86055
O          4.57443         1.10031         2.81500
O         -8.60345         0.82280        -1.52066
O         -1.28459         0.48500        -0.52646
O          3.02993         5.99353         1.64633
O         -1.32262        -3.48280        -1.75946
H         -0.83346        -2.67470        -2.04597
O          1.82371        -0.00902        -0.51795
H          1.59134        -0.61135        -1.26117
O        -10.13534        -3.01497        -2.01909
H         -9.22274        -2.80391        -2.31222
O         -7.62728        -5.91114        -1.89612
H         -7.66113        -4.98347        -2.22736
O          8.53782        -3.25666        -2.46604
H          8.08722        -2.39941        -2.65235
O         -3.86755       -10.39427        -2.11156
H         -2.98183       -10.31196        -2.55038
O         -3.87741        -0.09471        -1.08652
H         -3.84041        -0.85073        -1.71948
O          3.23475         8.95994        -2.95371
H          2.94870         8.03727        -3.16159
O          9.17704         5.55713         1.90243
H          8.33458         5.46835         2.39669
O         -4.18779        -5.20243        -2.12065
H         -4.31057        -4.31115        -2.52361
O        -11.12672        -1.52404         1.10419
H        -10.50266        -1.67163         1.85127
O         -1.27743        -9.91048        -2.34911
H         -0.72608        -9.29470        -2.88340
O          3.10819         9.72896         0.60441
H          2.48772        10.23255         1.16993
O          1.21342         4.43396         2.61232
H          0.92909         3.77883         3.28963
O         11.10410         1.34087         1.85500
H         10.50071         1.57662         2.59585
O          7.12057        -8.00481         1.06435
H          6.45403        -8.16378         1.76588
O          6.88507        -7.09234        -2.41631
H          7.33419        -6.40215        -2.94653
O         -5.30324         5.64777        -1.58632
H         -4.85614         4.84630        -1.93911
H         11.87160        -0.97243        -1.33783
H         12.07030         1.40689        -0.78177
H         11.06163         3.54044         0.38915
H          9.82397         5.52344        -0.05856
H          8.57667         7.51484        -0.74500
H          7.16645         9.61195        -1.43422
H          5.05996        10.71163        -1.82800
H          2.58313        10.82386        -1.11102
H          0.10855        10.92122        -0.65120
H         -2.33046        11.03190        -0.48027
H         -4.93059        10.96093        -1.08686
H         -7.04389         9.74638        -1.13260
H         -8.33731         7.68116        -0.93594
H         -9.52369         5.47978        -1.02699
H        -10.66146         3.42097        -1.26848
H        -11.77195         1.14354        -1.96889
H        -12.08023        -1.20824        -1.48396
H        -11.10567        -3.53962        -0.27643
H         -9.80646        -5.68324        -0.17398
H         -8.34022        -7.94746        -0.22207
H         -6.96338        -9.94880         0.67792
H         -5.17441       -11.28037         0.11250
H         -2.49356        -9.50922         0.83274
H          0.08432       -11.16075        -0.29549
H          2.59600       -11.19666        -0.15311
H          5.08548       -11.14319        -0.66734
H          7.16060        -9.92891        -0.87311
H          8.43217        -7.55364        -1.06631
H          9.58865        -5.39490        -1.05091
H         10.80140        -3.01511        -1.26377
