         349
 CSIRO Nanostructure Databank - Neutral Graphene Oxide Data Set
C          1.40519         4.18349        -2.89544
C          0.27526         4.95091        -2.92608
C          1.23124         6.66568        -1.46589
C          0.21619         6.22932        -2.26667
C          1.25128         8.08501        -0.93543
C         -0.04014         8.54210        -0.29554
C          1.10164        10.58533         0.35292
C         -0.10577         9.78810         0.22975
C          1.11832        11.97335         0.38281
C         -0.07316        12.77317         0.30663
C          1.07246        14.92002         0.71555
C         -0.09790        14.14482         0.47812
C          1.11150        16.33230         0.75638
C         -0.10889        17.12941         0.72200
C          1.18747        19.09076        -0.07576
C         -0.08184        18.44410         0.42680
C          1.19167        20.60207         0.01279
C          0.02292        21.32050        -0.27622
C          1.20610        23.44751        -0.14265
C          0.01995        22.71147        -0.32823
C          1.23949        24.89595        -0.28205
C          0.04537        25.66125        -0.45481
C          1.27266        27.77098        -0.49699
C          0.06740        27.05442        -0.50681
C          1.31827        29.19131        -0.52163
C          3.77959         3.96648        -2.23254
C          2.56601         4.61435        -2.15921
C          3.68775         6.41909        -0.71917
C          2.41887         5.80532        -1.29503
C          3.65858         7.81942        -0.23251
C          2.44845         8.46233        -0.09102
C          3.64676        10.54360         0.35147
C          2.35140         9.77835         0.67346
C          3.66315        11.98147         0.80490
C          2.40606        12.71088         0.47264
C          3.53268        14.84543         1.33268
C          2.35949        14.19135         0.69044
C          3.57294        16.34266         1.27786
C          2.35280        17.04786         0.81216
C          3.59715        19.16911         0.70810
C          2.40958        18.43454         0.54196
C          3.61914        20.58892         0.53381
C          2.39664        21.30570         0.22993
C          3.64968        23.44559         0.25011
C          2.41292        22.73316         0.12599
C          3.67867        24.86210         0.06551
C          2.47561        25.56804        -0.21807
C          3.75670        27.74524        -0.07759
C          2.56494        27.01337        -0.64031
C          3.75001        29.20054        -0.11287
C          2.50648        29.87723        -0.40762
C          6.21923         3.86896        -1.85584
C          4.99320         4.52564        -1.68773
C          6.17844         6.46302        -0.70729
C          4.97877         5.80776        -1.05412
C          6.14306         7.79063        -0.10439
C          4.93009         8.41898         0.11847
C          6.15956        10.60770         0.57657
C          4.89605         9.75420         0.81897
C          6.11715        11.88851         1.44114
C          4.80820        12.62458         1.15698
C          6.11214        14.83167         1.14542
C          4.82387        14.08721         1.40203
C          6.05988        16.30243         0.88703
C          4.88191        17.00339         1.10551
C          6.09347        19.16388         0.70461
C          4.85668        18.50063         1.23944
C          6.08251        20.57221         0.68457
C          4.83675        21.30541         0.66347
C          6.08103        23.46578         0.56553
C          4.86340        22.73634         0.49923
C          6.09665        24.86618         0.47377
C          4.90694        25.58086         0.22181
C          6.11336        27.75127         0.67005
C          4.89301        27.03410         0.24082
C          6.12303        29.26983         0.58961
C          4.90405        29.92478         0.11755
C          8.64725         3.73662        -1.48866
C          7.43137         4.45952        -1.42146
C          8.64686         6.39581        -0.45806
C          7.41944         5.79262        -0.88464
C          8.63411         7.76612         0.07811
C          7.40619         8.45293         0.23956
C          8.65022        10.47021         0.92888
C          7.43781         9.80793         0.66698
C          8.66447        11.92287         1.38579
C          7.36994        12.68714         1.13054
C          8.53774        14.72239         0.37964
C          7.32957        14.01835         0.86532
C          8.47812        16.22412         0.09764
C          7.24940        16.99667         0.44182
C          8.37656        19.14238        -0.26196
C          7.23284        18.40137         0.32373
C          8.35742        20.61536        -0.14492
C          7.29748        21.28539         0.45166
C          8.56725        23.49988         0.24739
C          7.38453        22.74589         0.84718
C          8.58446        24.85955         0.19945
C          7.40187        25.57438         0.79803
C          8.58943        27.74423         0.47558
C          7.41013        27.05600         0.54664
C          8.59679        29.19985         0.60878
C          7.44267        29.92568         0.56114
C         11.06557         3.55190        -1.01339
C          9.84475         4.30152        -1.01959
C         11.05812         6.19554         0.12161
C          9.82337         5.64895        -0.53769
C         11.09848         7.72987        -0.09497
C          9.84841         8.43096         0.39009
C         11.16727        10.45960         1.31739
C          9.87830         9.76899         0.83828
C         11.13934        11.99498         1.09751
C          9.93149        12.65733         0.96388
C         10.97620        14.84799         0.45967
C          9.84249        14.07277         0.62113
C         10.95651        16.27611         0.26311
C          9.76829        16.95614         0.08669
C         11.03754        19.12973        -0.14836
C          9.77310        18.38698        -0.28085
C         11.24374        20.38144        -0.70199
C          9.42018        21.41817        -0.66179
C         10.94881        23.36783        -0.50923
C          9.66951        22.72937        -0.29458
C         10.93856        24.76909        -0.64368
C          9.69209        25.65909        -0.48851
C         11.02187        27.97561        -0.15401
C          9.91880        27.00370         0.31734
C         11.10977        29.29065         0.38353
C          9.88793        29.85161         1.05688
C         13.51628         3.39279        -0.77164
C         12.31150         4.12575        -0.70225
C         13.54568         6.21053        -0.33624
C         12.35503         5.54584        -0.34273
C         13.60882         7.72031        -0.21200
C         12.37957         8.27747         0.52059
C         13.68212        10.19386         1.11809
C         12.42811         9.77870         0.75447
C         13.75626        12.30815         1.19218
C         12.36982        12.84014         1.17572
C         13.48466        14.89098         0.13739
C         12.28421        14.26230         0.76542
C         13.52563        16.34727         0.28783
C         12.22878        17.00648         0.54567
C         13.50027        19.23781         0.35315
C         12.21778        18.52300         0.47508
C         13.52838        20.60596         0.08269
C         12.31986        21.25680        -0.34770
C         13.44400        23.44282        -0.32608
C         12.22550        22.67469        -0.47449
C         13.42246        24.83145        -0.64131
C         12.16724        25.33880        -1.00606
C         13.46094        28.07692        -0.59483
C         12.17405        27.54236        -0.80775
C         13.49780        29.44642        -0.18974
C         12.27305        30.04713         0.23685
C         15.96614         3.30538        -0.47506
C         14.79499         4.02074        -0.67256
C         16.12822         6.21027        -0.55641
C         14.80720         5.50789        -0.70318
C         16.14810         7.52266         0.14773
C         14.88931         8.21755         0.43383
C         16.09746        10.42630         0.40442
C         14.94995         9.68126         0.63656
C         16.07085        11.92476         0.19179
C         14.84453        12.74157         0.50168
C         16.01299        14.91307        -0.13437
C         14.76793        14.12552        -0.05151
C         15.94345        16.30161        -0.14765
C         14.71788        17.01840         0.16312
C         16.02560        19.24257         0.39672
C         14.74988        18.47153         0.49696
C         16.00929        20.71624         0.26389
C         14.74619        21.38830         0.16943
C         15.89540        23.56746         0.24756
C         14.67315        22.78104         0.01041
C         15.85314        25.06387         0.08132
C         14.58230        25.75521        -0.34987
C         15.86599        27.92517        -0.50826
C         14.65206        27.25101        -0.63167
C         15.89311        29.37313        -0.62678
C         14.73501        30.11629        -0.33596
C         18.38795         3.23637         0.37001
C         17.30173         3.92356        -0.35525
C         18.53082         6.12560         0.26570
C         17.40421         5.44263        -0.41803
C         18.58385         7.54607         0.34116
C         17.38559         8.31981         0.12158
C         18.63009        10.41713        -0.03251
C         17.33962         9.70974         0.10409
C         18.71109        11.93583        -0.35482
C         17.32501        12.67463        -0.24315
C         18.34165        14.94104        -0.74410
C         17.28105        14.20110        -0.28927
C         18.43302        16.42979        -0.91833
C         17.11873        17.11765        -0.56639
C         18.48872        19.26101        -0.18544
C         17.18128        18.57001        -0.25693
C         18.47531        20.64205         0.03276
C         17.23532        21.37547         0.13443
C         18.45660        23.62737        -0.07625
C         17.23756        22.84857         0.27455
C         18.43648        24.98444        -0.19579
C         17.18735        25.77610         0.04067
C         18.47798        27.99952        -0.53270
C         17.16807        27.26094        -0.20431
C         18.26605        29.28586        -1.31324
C         17.08068        30.00400        -1.09794
C         19.46882         3.90780         0.84185
C         20.68141         6.03030         1.39299
C         19.58467         5.35780         0.79914
C         20.75711         7.42020         1.41468
C         19.71825         8.20651         0.87798
C         20.77925        10.51593         1.34386
C         19.82936         9.66445         0.60495
C         20.71780        11.87393         1.30299
C         19.86058        12.60777         0.40339
C         20.91518        14.95190         0.64941
C         20.15923        13.90735         0.02597
C         20.71135        16.31169         0.43161
C         19.64166        17.04660        -0.17604
C         20.94092        19.20253        -0.10971
C         19.69029        18.46789        -0.15466
C         20.97881        20.55863        -0.09873
C         19.76177        21.36981         0.11028
C         20.87972        23.56782        -0.74616
C         19.75291        22.87979        -0.07556
C         20.81637        24.88222        -1.00197
C         19.73675        25.76382        -0.40825
C         20.69851        27.80007        -1.67662
C         19.46803        27.03691        -1.25129
C         20.59300        29.10049        -2.07434
C         19.36485        29.82478        -1.98551
O          2.81375         5.55420         0.09837
O         19.51229        14.34507        -1.14248
O         10.29133        20.86353        -1.60802
O         15.59359        18.73883         1.69817
O         16.77495        18.11271        -1.61243
O         16.57327        23.25989         1.51266
O         15.48394         6.17090        -1.86484
O         14.93880        25.60530         1.07990
O         12.08807        17.81381         1.76286
O         12.35739        13.92813         2.19933
O          5.65144        14.49489         2.52419
O         12.10980        26.51243        -1.73607
O          5.93868        28.54453         1.89090
O         17.26730        26.72121         1.16003
O          2.65437        13.65214        -0.64956
O         16.41703        12.12771        -1.24836
O         19.65676         9.79612        -0.84627
O         19.97071        22.29900         1.25334
O         17.76491         4.63899        -1.56725
O          8.95988        18.61385        -1.47417
O         13.83655        14.33778        -1.17564
O          3.27348        15.60178         2.54216
O         13.84874        11.21904         2.06031
O         15.50306         7.41714         1.49075
O          8.34279        15.23676        -0.98837
O         19.02881        12.00514        -1.75511
H         18.22948        11.72824        -2.25325
O          1.42862         8.92086        -2.14204
H          2.04277         9.66215        -1.91599
O         13.67207         8.25459        -1.56716
H         14.31615         7.68488        -2.06306
O         10.36306        26.60065         1.62964
H         10.40695        27.40795         2.19258
O          7.54046        25.46919         2.26530
H          6.88105        26.07501         2.66823
O          8.76595        11.88460         2.84664
H          9.53306        11.30277         3.07227
O          7.56679        22.71930         2.29180
H          7.63042        23.66463         2.58469
O          4.85641        18.75773         2.69618
H          4.26992        18.09077         3.11475
O         12.49414         7.77603         1.89012
H         11.92099         8.34053         2.46199
O         18.80844        26.55208        -2.45750
H         18.80049        27.28532        -3.10891
O          2.81205        26.96335        -2.10945
H          2.04431        26.50190        -2.51063
O          3.61828        10.60143        -1.10268
H          4.39569        11.14134        -1.38906
O          6.13307        11.57101         2.85085
H          6.25982        12.41796         3.33539
O         18.71425        16.64077        -2.32179
H         18.15108        17.39884        -2.61122
O          4.80561         9.41516         2.22308
H          5.17177        10.15577         2.76975
O         11.18680        10.26102         2.77443
H         11.98998        10.72332         3.11036
O          2.21082         9.49814         2.08030
H          3.08120         9.14823         2.40383
O          9.21211        26.06175        -1.79122
H          9.10450        25.26101        -2.34495
O         10.88432         5.83495         1.51383
H         11.66152         6.19110         2.00915
O         20.22721        26.16300         0.89219
H         20.30480        25.35702         1.44543
O         10.00876        29.54588         2.46597
H          9.16245        29.77844         2.90225
O         11.05658         7.95629        -1.52491
H         11.97208         8.12968        -1.85950
O          1.25387        18.79592        -1.51481
H          1.24857        17.81991        -1.61399
O         19.05437        28.47249         0.69314
H         18.87264        27.78953         1.38165
O          6.15048        11.11418        -0.79599
H          6.53060        10.42400        -1.38038
H          1.45594         3.23858        -3.45601
H         -0.59656         4.62226        -3.50907
H         -0.66540         6.86455        -2.43401
H         -0.94409         7.92151        -0.38460
H         -1.07104        10.20035         0.56275
H         -1.03036        12.25813         0.14252
H         -1.07013        14.65528         0.42384
H         -1.05848        16.64582         0.99361
H         -1.01714        19.02156         0.44015
H         -0.91296        20.78584        -0.48832
H         -0.92246        23.22500        -0.56021
H         -0.92874        25.15527        -0.47088
H         -0.88417        27.60685        -0.52554
H          0.37370        29.74812        -0.61964
H          3.86200         3.04085        -2.82241
H          2.51036        30.97643        -0.44092
H          6.24303         2.86851        -2.31254
H          4.91169        31.01315        -0.04569
H          8.64170         2.70810        -1.87933
H          7.48327        31.02596         0.61307
H         11.03226         2.49983        -1.33583
H          9.83282        30.96923         0.92164
H         13.47151         2.30250        -0.91456
H         12.27868        31.09962         0.55600
H         15.90077         2.21287        -0.35203
H         14.79386        31.21022        -0.24371
H         18.30024         2.15135         0.53195
H         17.02543        31.05995        -1.40546
H         20.26874         3.35252         1.35452
H         21.50486         5.43723         1.81645
H         21.64909         7.90445         1.83716
H         21.49364        10.02778         2.02227
H         21.44687        12.45637         1.88726
H         21.69417        14.67538         1.37604
H         21.43037        16.95378         0.96813
H         21.88363        18.64252        -0.18718
H         21.94870        21.07638        -0.10367
H         21.73569        22.97188        -1.09698
H         21.64939        25.35965        -1.53772
H         21.66767        27.28851        -1.76044
H         21.47688        29.61979        -2.47355
H         19.29680        30.82916        -2.42850
