         268
 CSIRO Nanostructure Databank - Neutral Graphene Oxide Data Set
C        -10.50305         0.47330        -1.91506
C         -9.68723         1.40161        -1.04548
C         -8.45507         0.72630        -0.45221
C         -7.64850         1.56356         0.53300
C         -6.44508         0.86652         1.13600
C         -5.12758         1.63235         1.15751
C         -3.78784         0.91580         1.08582
C         -2.57646         1.64157         0.65547
C         -1.26439         0.93959         0.72180
C         -0.01312         1.58935         0.26156
C          1.15803         0.88179         0.10385
C          2.41564         1.62246        -0.24022
C          3.53416         0.81430        -0.84109
C          4.74846         1.52874        -1.37569
C          6.03928         0.75530        -1.54105
C          7.37359         1.45617        -1.30447
C          8.51791         0.67411        -0.80838
C          9.65276         1.30053        -0.22844
C         10.82599         0.47094         0.08512
C         -9.26628         2.68582        -1.78977
C         -8.40661         3.59761        -0.92275
C         -7.51813         3.01741         0.12690
C         -6.24526         3.73850         0.34585
C         -5.10803         3.06016         0.77317
C         -3.84449         3.72833         0.76152
C         -2.61633         3.03090         0.63516
C         -1.38828         3.76369         0.21258
C         -0.10381         3.03852        -0.05065
C          1.12428         3.85787        -0.19434
C          2.39762         3.11248        -0.41329
C          3.54983         3.83094        -1.07453
C          4.80368         3.05609        -1.35428
C          6.13667         3.75162        -1.15488
C          7.41690         2.96773        -1.12706
C          8.67998         3.64329        -0.54556
C          9.70901         2.67136        -0.03986
C         -8.34555         4.92651        -1.19896
C         -7.28692         5.81221        -0.73043
C         -6.15445         5.22427         0.06703
C         -4.77108         5.68952        -0.45177
C         -3.91867         5.22050         0.75266
C         -2.58392         5.89933         0.93327
C         -1.29923         5.19619         0.62042
C         -0.09662         5.98949         0.26324
C          1.08014         5.22972        -0.17796
C          2.30566         6.01617        -0.50618
C          3.58587         5.33459        -0.86522
C          4.90963         5.99283        -0.55326
C          6.15054         5.15113        -0.55005
C          7.22267         5.45310         0.45387
C          8.32904         4.68459         0.50484
C         -7.20959         7.08946        -1.18816
C         -5.93851         7.90404        -1.26239
C         -4.73419         7.21387        -0.60696
C         -3.73273         8.02941         0.14841
C         -2.60813         7.38618         0.89969
C         -1.30585         8.13406         0.78424
C         -0.09356         7.35914         0.43392
C          1.08268         8.19431        -0.07259
C          2.34091         7.35958         0.14925
C          3.61963         7.97952         0.53131
C          4.91145         7.27444         0.25767
C          5.98869         7.57956         1.25226
C          7.04709         6.52611         1.54175
C         -6.05113         9.36491        -0.86647
C         -5.09821        10.08923        -0.26165
C         -3.90052         9.50789         0.45087
C         -2.56051        10.20259         0.22354
C         -1.37030         9.58499         0.41326
C         -0.07442        10.39301         0.44951
C          1.17911         9.54608         0.62370
C          2.32244        10.04379         1.13823
C          3.70909         9.44430         0.93507
C          4.62997         9.47346         2.14760
C          5.64519         8.60051         2.29237
C        -10.27036        -0.83168        -2.09558
C         -9.02038        -1.56637        -1.65426
C         -8.23802        -0.75378        -0.58725
C         -7.74173        -1.39187         0.73002
C         -6.44172        -0.63590         1.17515
C         -5.11067        -1.29795         0.90636
C         -3.81815        -0.55049         0.82315
C         -2.48664        -1.29087         0.77348
C         -1.22000        -0.52307         1.05172
C          0.15594        -1.24612         1.14531
C          1.27040        -0.55537         0.36280
C          2.42746        -1.26708         0.11843
C          3.60222        -0.63512        -0.48615
C          4.70874        -1.36056        -0.84632
C          5.89634        -0.77999        -1.58451
C          7.20882        -1.49691        -1.22270
C          8.49612        -0.78827        -0.91851
C          9.49985        -1.61068        -0.11819
C         10.80448        -0.87410         0.04371
C         -9.28646        -3.00055        -1.24538
C         -8.44082        -3.63379        -0.41407
C         -7.64141        -2.93560         0.65291
C         -6.30623        -3.54944         0.98803
C         -5.05676        -2.76678         1.15351
C         -3.72966        -3.48781         1.19743
C         -2.46486        -2.78428         0.79543
C         -1.14325        -3.52715         0.90527
C          0.12649        -2.75390         0.90381
C          1.42932        -3.45768         1.18417
C          2.65472        -2.70621         0.61577
C          3.41130        -3.52819        -0.43365
C          4.59976        -2.83806        -1.00238
C          5.85449        -3.65916        -0.99388
C          7.15281        -2.95336        -0.85837
C          8.43370        -3.71063        -0.94963
C          9.59657        -3.02503        -0.64411
C         -8.66695        -4.79458         0.53413
C         -7.49834        -5.75575         0.62152
C         -6.17204        -5.00909         0.57308
C         -4.98721        -5.75784         1.17617
C         -3.70714        -4.97759         1.26559
C         -2.39233        -5.65000         0.99400
C         -1.17965        -4.89581         1.57039
C          0.11066        -5.71331         1.47220
C          1.42467        -4.95721         1.33528
C          2.46349        -5.74592         0.55626
C          3.41501        -5.03530        -0.35625
C          4.55308        -5.81462        -1.01966
C          5.81350        -5.08711        -1.50130
C          7.11544        -5.83162        -1.19130
C          8.34631        -5.11927        -1.09268
C         -7.49894        -7.10358         0.51520
C         -6.28750        -8.00761         0.80467
C         -4.96584        -7.22718         0.98732
C         -3.71533        -7.81944         0.24852
C         -2.38900        -7.07302         0.54536
C         -1.11405        -7.90557         0.55978
C          0.06884        -7.19109         1.22295
C          1.35563        -7.97049         1.09118
C          2.62697        -7.22975         0.80938
C          3.85112        -7.98402         0.27481
C          4.62166        -7.29704        -0.84677
C          5.89298        -8.04150        -1.30454
C          7.11940        -7.20563        -1.04183
C         -6.09295        -9.24847        -0.04224
C         -4.92390        -9.92971        -0.05099
C         -3.66417        -9.33006         0.41118
C         -2.52289       -10.00292         0.69945
C         -1.26424        -9.30333         1.18644
C          0.03821       -10.06249         0.93107
C          1.23985        -9.44225         0.88850
C          2.57113       -10.16238         0.79233
C          3.52158        -9.43709        -0.18975
C          4.86713       -10.12603        -0.34687
C          5.94781        -9.46086        -0.77970
O         -5.94254        -4.98254        -0.81116
O          2.12874        -5.53200        -0.85539
O         -0.00589        -6.68456         2.57991
O          3.61327        -2.56085         1.69198
H          3.20142        -2.91559         2.51546
O          3.95078         3.54054        -2.43650
O         -3.51637         7.68001        -1.27837
O          2.79293         7.24623         1.52938
O         -8.28173         2.57263         1.34564
O         -6.63524         0.12579         2.38249
O          3.44713        -3.15372        -1.84145
O          6.87717         1.14693        -2.65950
O         -8.18803        -1.67563        -2.83381
H         -7.66780        -0.84476        -2.91288
O          5.65613        -1.14087        -2.96985
H          6.20819        -0.53340        -3.51628
O         -8.77745        -1.07161         1.66281
H         -8.66084        -1.63249         2.45941
O         -2.01855         7.97091         2.08652
O          3.71137         1.03975        -2.27392
O          2.76798         6.00222        -1.88170
O          6.02023         8.14433        -0.09262
O        -10.55150         1.77571         0.04648
H        -10.00652         2.20411         0.75064
O          6.99135         3.66184        -2.33424
O         -4.75712         5.63158         1.90550
O          0.57893        -1.18119         2.52797
H          0.23190        -0.34129         2.91213
O         -0.73652        -8.11819        -0.81098
H         -1.12172        -7.39315        -1.35393
O         -1.04617         3.40585        -1.15710
O         -2.20572        -5.96898        -0.40895
O         -7.37992         0.18718        -1.32267
O         -0.39184        -3.33599        -0.32660
O          2.87207         2.48940         0.86107
O         -6.13161         5.84084         1.41130
O         -4.34349         1.36395         2.35548
O         -3.62939        -4.17271         2.47609
O          8.21747        -1.30472        -2.26204
O          5.88692         6.11006        -1.62548
O          4.80695        -8.04785         1.35451
H          4.47925        -8.72675         1.99199
O         -4.59803        -0.86122        -0.38654
O         -5.87604        -3.15503         2.30988
O          8.90558        -1.70188         1.21815
H          9.46542        -2.28883         1.76840
O          6.59711        -4.02662        -3.46989
H          6.02794        -3.22401        -3.61601
O         -1.32461        -4.59117         2.96231
H         -1.11460        -5.40523         3.47417
O          2.82546        -9.39886        -1.44136
H          3.38777        -8.96433        -2.11774
O          5.66470        -5.02016        -2.98107
O          0.91239         8.44348        -1.43312
O         -1.77114         5.35315         2.00336
O          2.30874        -7.61970         2.16872
O         -2.47308        -2.06270        -0.46153
O         -4.02755        -7.59519        -1.08540
O          6.43219        -3.40692         0.33959
O          9.34468         4.35314        -1.62019
H          8.64668         4.57690        -2.28348
O         -4.20158         9.64090         1.86242
H         -3.45373         9.23729         2.36505
O          1.72276        -4.08639         2.46710
O          3.94468        -6.73756        -1.99045
O         -1.28115         0.42111         2.15151
O         -8.50642         2.33826        -2.95406
H         -7.85469         1.64394        -2.71032
O          8.30074         7.15813         1.80023
H          8.50757         7.73538         1.03557
O         -8.51260        -3.75423         1.62145
O          5.86045        -8.16704        -2.75146
H          5.39315        -7.36979        -3.10386
O         -4.40238         5.05206        -1.65820
H         -3.94074         5.69972        -2.23328
O         -4.96672        -6.68693         2.33405
O         -0.16550        11.39431         1.46305
H         -0.35932        10.95745         2.31754
O          3.17026       -10.19854         2.10332
H          2.73407        -9.50776         2.65453
O         -1.40621        -9.11002         2.61565
H         -1.53363        -9.98498         3.03682
O         -5.66761         7.93138        -2.69422
H         -4.74442         8.25753        -2.79800
O         -6.63237        -8.55869         2.10437
H         -6.37870        -7.88204         2.77677
O          4.32055        10.22763        -0.10763
H          3.78633        10.13309        -0.92368
H         11.71770        -1.45256         0.25014
H         11.76416         1.00302         0.30164
H         10.63080         3.11219         0.36878
H          9.09620         4.92182         1.25903
H          6.75207         5.99615         2.49038
H          6.29069         8.64604         3.18287
H          4.44942        10.23144         2.92517
H          2.29718        11.06255         1.56198
H          0.03389        10.93230        -0.52928
H         -2.57398        11.28955         0.04560
H         -5.25782        11.17032        -0.12492
H         -6.92603         9.88796        -1.28414
H         -8.04323         7.47722        -1.79486
H         -9.03118         5.34240        -1.95376
H        -10.17104         3.24435        -2.13436
H        -11.41156         0.92208        -2.34604
H        -10.96305        -1.41108        -2.72622
H        -10.07828        -3.54865        -1.77773
H         -9.66719        -5.28341         0.55438
H         -8.46355        -7.63842         0.48553
H         -6.99583        -9.71715        -0.46243
H         -4.87953       -10.92758        -0.51564
H         -2.53276       -11.10598         0.71375
H         -0.00775       -11.15817         0.81673
H          2.42191       -11.21659         0.44417
H          4.95187       -11.18492        -0.05746
H          6.91126        -9.98373        -0.88494
H          8.08070        -7.71653        -0.87026
H          9.27208        -5.71053        -1.01063
H         10.56405        -3.55041        -0.62264
