         244
 CSIRO Nanostructure Databank - Neutral Graphene Oxide Data Set
C          1.26431         1.97757         0.19980
C          1.24051         3.40263         0.14862
C          2.44422         1.29650         0.06422
C          2.39191         4.13582        -0.03979
C          1.27179         6.33970         0.57349
C          1.31352         7.67607         0.75744
C          2.33589         5.64020        -0.22562
C          2.47803         8.47174         0.41694
C          1.23455        10.61471         0.53428
C          1.18768        11.98571         0.51949
C          2.44832         9.85346         0.38900
C          2.34041        12.80711         0.28578
C          1.15163        14.94635         0.65008
C          1.22980        16.28084         0.96847
C          2.30765        14.20098         0.25372
C          2.47706        16.98865         0.94659
C          2.57057        18.31425         1.44915
C          3.67316         2.00218        -0.15691
C          3.64862         3.45314        -0.24763
C          4.88511         1.31870        -0.18959
C          4.81783         4.16849        -0.52585
C          3.68595         6.30554        -0.08808
C          3.79893         7.72934         0.40503
C          4.82041         5.61115        -0.43115
C          4.95945         8.49765        -0.19645
C          3.71921        10.61456         0.27492
C          3.64667        12.11071         0.19835
C          4.94632         9.90424        -0.18695
C          4.80994        12.86291        -0.31506
C          3.49119        15.00374        -0.25748
C          3.63782        16.35805         0.42090
C          4.78172        14.21883        -0.34971
C          4.84138        17.06460         0.36388
C          3.77204        18.99055         1.44387
C          4.95222        18.38725         0.91784
C          6.11977         2.00476        -0.37130
C          6.07793         3.41206        -0.92463
C          7.31690         1.37909        -0.09989
C          7.35411         4.17652        -0.66042
C          6.04802         6.36443        -0.80151
C          6.12934         7.82410        -0.59873
C          7.34752         5.60894        -0.96583
C          7.34465         8.52659        -0.84686
C          6.09977        10.61659        -0.54566
C          6.05332        12.11585        -0.75517
C          7.33459         9.95151        -0.80500
C          7.30520        12.68706        -0.05377
C          6.05705        14.97002        -0.66898
C          6.03562        16.46432        -0.26734
C          7.21996        14.26395         0.14468
C          7.34054        17.16492        -0.02966
C          6.18549        19.09380         0.97086
C          7.40814        18.51733         0.57208
C          8.57348         2.08255        -0.06633
C          8.56458         3.52579        -0.36684
C          9.73878         1.45777         0.28476
C          9.78620         4.21654        -0.46243
C          8.59203         6.39087        -0.95102
C          8.60065         7.78442        -1.00839
C          9.82179         5.59446        -0.95403
C          9.85861         8.50194        -1.12498
C          8.54812        10.73489        -1.07835
C          8.48896        12.11559        -0.84364
C          9.80935         9.97123        -1.42666
C          9.50225        13.05825        -1.15024
C          8.51623        15.00842        -0.13098
C          8.57246        16.36892        -0.04964
C          9.69678        14.28998        -0.52670
C          9.88174        17.03247         0.23752
C          8.64351        19.18514         0.55424
C          9.86676        18.53811         0.14670
C         10.98975         2.25756         0.52426
C         11.08816         3.45363        -0.42793
C         12.26697         1.47336         0.48840
C         12.29246         4.30569        -0.05700
C         11.13808         6.33749        -0.94781
C         11.09280         7.82041        -1.03877
C         12.28944         5.66030        -0.30787
C         12.37129         8.47044        -1.03797
C         11.20409        10.62403        -1.57863
C         11.39943        12.08190        -1.52228
C         12.43055         9.88088        -1.23520
C         12.35909        12.73012        -0.82106
C         10.99021        14.94875        -0.58814
C         11.05638        16.31702        -0.39152
C         12.22315        14.12401        -0.24689
C         12.31322        17.00900        -0.33093
C         11.04382        19.19847        -0.11136
C         12.26063        18.48267        -0.67557
C         13.47931         2.15597         0.45838
C         13.49983         3.61361         0.34709
C         14.71512         1.46226         0.56331
C         14.71538         4.29457         0.48230
C         13.44635         6.48544         0.05555
C         13.56176         7.82488        -0.54277
C         14.72949         5.76823         0.47407
C         14.80530         8.45874        -0.56507
C         13.60131        10.58430        -0.98781
C         13.51815        11.92340        -0.30227
C         14.89173         9.84984        -1.18445
C         14.80226        12.72897        -0.25720
C         13.53436        14.88032        -0.18600
C         13.49856        16.31440        -0.13769
C         14.73821        14.17530        -0.06711
C         14.70248        17.07023         0.35915
C         13.56455        19.18269        -0.44514
C         14.73986        18.51792        -0.09866
C         15.94572         2.14426         0.60131
C         15.96474         3.58670         0.57366
C         17.17155         1.44267         0.72152
C         17.19934         4.27034         0.62849
C         16.00556         6.46908         0.24937
C         16.02140         7.76086        -0.22769
C         17.23262         5.77489         0.78749
C         17.33471         8.37681        -0.67489
C         16.11562        10.66632        -0.74815
C         15.99302        12.05494        -0.23554
C         17.38092         9.90892        -0.52636
C         17.21488        12.73189         0.34514
C         15.99821        14.90299         0.04141
C         15.99954        16.33116         0.13132
C         17.22397        14.21378         0.09562
C         17.19309        17.03043         0.23633
C         15.95823        19.19097         0.01820
C         17.15507        18.50044         0.59297
C         18.39211         2.12269         0.78175
C         18.41642         3.55794         0.71772
C         19.62883         1.40166         0.92094
C         19.68843         4.24409         0.71846
C         18.53320         6.40675         0.35732
C         18.55653         7.69684        -0.09116
C         19.76379         5.65514         0.51624
C         19.84239         8.38753        -0.28375
C         18.52856        10.54204         0.25247
C         18.53375        12.04643         0.10356
C         19.83000         9.91486        -0.20394
C         19.73041        12.75640         0.11770
C         18.46011        14.91398         0.10608
C         18.44618        16.34808         0.14525
C         19.71062        14.21299         0.11713
C         19.66121        17.08251         0.11551
C         18.42492        19.21243         0.26201
C         19.62193        18.53229         0.09022
C         20.82520         2.05975         0.95709
C         20.88695         3.48788         0.82472
C         22.13808         4.15179         0.75828
C         21.02839         6.28889         0.36642
C         21.09682         7.70467         0.05641
C         22.20698         5.51065         0.52499
C         22.26036         8.46674         0.13100
C         21.08342        10.63012         0.05834
C         21.01520        12.06963         0.15714
C         22.25953         9.88077         0.09303
C         22.18507        12.84419         0.23894
C         20.92943        14.94337         0.12585
C         20.91361        16.40071         0.05953
C         22.14896        14.23309         0.21011
C         22.08964        17.15708        -0.07530
C         20.85392        19.24588        -0.08200
C         22.04964        18.56361        -0.15737
O         10.67364         5.69552        -2.19158
O         10.44331        10.18897        -2.73964
O         19.82874         9.23598        -1.49473
O          6.62554        17.27119        -1.35405
O         17.18140        10.60676        -1.78359
O         13.84598         6.39932         1.46663
O          6.89926        14.51864         1.47905
O          6.49135         5.95490        -2.14725
O          3.97671        11.42622         1.48129
O         10.40380        12.79404        -2.18684
O          6.17236        12.24746        -2.19216
H          6.20938        13.20667        -2.42830
O         18.38627        10.22503         1.66122
H         17.76122        10.89173         2.04626
O         11.30268         2.95221        -1.77274
H         11.22497         3.72785        -2.37779
O         10.13094        16.77809         1.68004
H         10.90647        17.31958         1.94327
O         17.01765        12.59108         1.83308
H         17.59270        13.26021         2.26425
O         15.00234         9.59731        -2.61305
H         15.88771         9.17273        -2.75031
O         11.92744        13.85256         1.19517
H         11.64167        14.69985         1.60720
O         16.98817        18.53769         2.09085
H         17.80043        18.14382         2.47694
O         14.53658        17.12928         1.81784
H         15.31472        17.63907         2.16365
O          4.15877         7.58976         1.83130
H          4.23801         8.49580         2.20235
O         17.39354         8.09766        -2.10639
H         18.20865         8.55101        -2.43398
O          7.38256        12.12045         1.25574
H          7.17711        12.89203         1.86578
O         12.06163        18.51187        -2.14334
H         11.22590        18.03543        -2.33714
O          6.00535         3.26218        -2.38478
H          6.09563         4.17397        -2.75681
O         17.17473         6.00817         2.24086
H         16.26270         5.80271         2.54039
O         10.87045         2.84060         1.86715
H         10.87168         2.10584         2.51563
O         13.27165        11.55113         1.09782
H         12.84180        12.33333         1.52705
O          1.96225         5.85071        -1.63872
H          2.60875         5.35917        -2.18956
O          3.15204        15.30783        -1.65890
H          3.97862        15.59107        -2.10782
O          6.31086        14.91521        -2.08338
H          6.70407        15.79594        -2.32627
H          0.32254         1.43437         0.35898
H          0.27075         3.90772         0.25620
H          2.46850         0.19860         0.11874
H          0.38583         5.77664         0.89937
H          0.45681         8.17550         1.23475
H          0.28953        10.06823         0.66062
H          0.20661        12.46801         0.63307
H          0.19701        14.42359         0.80623
H          0.33463        16.80956         1.32738
H          1.66792        18.79555         1.85275
H          4.90350         0.24034         0.03134
H          3.83408        20.00907         1.85393
H          7.31155         0.31940         0.20052
H          6.18233        20.11322         1.38707
H          9.73415         0.38168         0.52064
H          8.67489        20.25623         0.81094
H         12.25309         0.37747         0.59293
H         11.06418        20.30029        -0.09754
H         14.70625         0.36423         0.63219
H         13.61074        20.25821        -0.67895
H         17.15836         0.34369         0.77063
H         16.03655        20.24857        -0.27579
H         19.59194         0.30516         0.99611
H         18.42355        20.31289         0.26661
H         21.76644         1.49996         1.05810
H         23.06145         3.56337         0.85931
H         23.19150         5.98934         0.43544
H         23.22169         7.97114         0.32671
H         23.22756        10.38659         0.21602
H         23.16333        12.34845         0.29979
H         23.10055        14.77863         0.25708
H         23.06681        16.66085        -0.14095
H         20.83075        20.34375        -0.13058
H         22.99094        19.11783        -0.27905
