         480
 CSIRO Nanostructure Databank - Neutral Graphene Oxide Data Set
C         37.82724        49.71458         2.16989
C         36.70754        50.31861         2.69987
C         37.78463        52.48121         2.57095
C         36.68687        51.71653         2.90470
C         40.25812        48.40533         1.17623
C         40.14136        49.85031         1.25679
C         38.98255        50.47273         1.81731
C         40.10695        52.67800         1.67335
C         38.95941        51.89250         2.01976
C         40.12991        54.10590         1.87423
C         42.30572        48.61320        -0.22274
C         41.29381        47.80742         0.55138
C         42.42468        50.02250         0.30629
C         41.25493        50.63736         0.86220
C         42.40441        52.81169         0.74320
C         41.24937        52.05134         1.10450
C         42.34212        54.27357         0.82646
C         41.16645        54.87596         1.45143
C         44.88503        45.89259        -0.96435
C         43.65640        46.57905        -0.74348
C         44.85470        48.61714        -0.14505
C         43.63173        47.90122        -0.34826
C         44.87709        50.02076        -0.03234
C         43.61525        50.73909         0.15893
C         44.83529        52.89884         0.30663
C         43.59514        52.17377         0.33707
C         44.92534        54.19700         0.77777
C         43.73425        55.02552         0.88089
C         45.02175        56.86951         1.88897
C         43.84119        56.35651         1.50521
C         47.52307        44.44749        -0.18198
C         47.35811        45.72595        -0.98146
C         46.08534        46.46702        -0.64030
C         47.43517        48.62722        -0.23595
C         46.10178        47.83936        -0.13306
C         47.32621        50.07321        -0.37703
C         46.12001        50.73760        -0.16140
C         47.33934        52.95439        -0.07415
C         46.02575        52.24610        -0.35659
C         47.41816        54.15582         0.56512
C         46.23568        54.64134         1.39580
C         47.59842        56.90874         1.68199
C         46.30385        56.12965         1.78266
C         47.60919        58.39375         1.69373
C         49.81287        44.31743        -1.10195
C         48.68270        43.78618        -0.24368
C         49.85863        45.82828        -1.00802
C         48.64915        46.52925        -0.86721
C         49.86584        48.65303        -0.88562
C         48.65553        47.93030        -0.71243
C         49.86242        50.09054        -0.93319
C         48.54283        50.78812        -0.84490
C         49.83710        52.99769        -0.68813
C         48.51964        52.29222        -0.68486
C         49.96378        54.14539         0.26164
C         48.74313        54.79078         0.84729
C         49.99863        56.96697         1.07086
C         48.83884        56.24291         1.18795
C         50.05266        58.42450         1.38112
C         48.75202        59.09319         1.59939
C         52.35688        41.59523        -0.43217
C         51.15973        42.26678        -0.62816
C         52.35201        44.37289        -0.90945
C         51.13928        43.65674        -0.81675
C         52.34685        45.80268        -1.08386
C         51.09893        46.51731        -1.04580
C         52.32826        48.65178        -1.19827
C         51.09529        47.94455        -1.04945
C         52.33405        50.08760        -1.20449
C         51.07210        50.77981        -1.12167
C         52.42282        52.95810        -0.93770
C         51.09169        52.26179        -1.09808
C         52.44623        54.34855        -0.39404
C         51.25945        54.88383         0.31534
C         52.49294        57.09264         0.36249
C         51.29964        56.32694         0.75814
C         52.38135        58.57280         0.16444
C         51.28365        59.21901         1.00155
C         52.41780        61.36916         0.62159
C         51.26987        60.70002         0.87638
C         54.84907        40.23710         0.15506
C         54.83171        41.58914        -0.26421
C         53.58788        42.27983        -0.48985
C         54.83448        44.35358        -1.01597
C         53.60100        43.67647        -0.79611
C         54.83375        45.77619        -1.32096
C         53.56528        46.50499        -1.25940
C         54.75566        48.64959        -1.73325
C         53.53426        47.91788        -1.37006
C         54.83032        50.08354        -1.40606
C         53.60150        50.77751        -1.20708
C         54.88997        52.82330        -0.71788
C         53.67679        52.18125        -0.93524
C         54.97216        54.20129        -0.07549
C         53.70897        54.99856        -0.03620
C         54.95402        57.14182        -0.04725
C         53.69135        56.40304         0.09310
C         54.92201        58.59404         0.11745
C         53.71038        59.29080         0.31623
C         54.94069        61.41392         0.47643
C         53.70000        60.69326         0.46167
C         55.00621        62.83222         0.60440
C         57.28115        40.19440         0.10102
C         56.03758        39.56052         0.32987
C         57.29709        41.57359        -0.27412
C         56.06339        42.27300        -0.46035
C         57.31628        44.26680        -1.19953
C         56.06623        43.64087        -0.88855
C         57.24567        45.57316        -1.96949
C         56.03317        46.41927        -1.60201
C         57.31892        48.62376        -1.77054
C         56.06093        47.86929        -1.88774
C         57.32533        50.02251        -1.57361
C         56.08001        50.74373        -1.34557
C         57.36351        52.83546        -0.97424
C         56.12944        52.14089        -0.98993
C         57.44053        54.30467        -0.57621
C         56.08314        55.01104        -0.75961
C         57.44668        57.16586        -0.15403
C         56.11658        56.46051        -0.30936
C         57.32607        58.62315        -0.58790
C         56.13493        59.32797         0.01508
C         57.48725        61.39794         0.45143
C         56.15797        60.70175         0.24676
C         57.44196        62.89786         0.30973
C         56.20490        63.53529         0.47632
C         59.71461        37.38740         0.65843
C         58.53160        38.07705         0.52494
C         59.75354        40.14582         0.07281
C         58.51701        39.46668         0.23196
C         59.77314        41.54085        -0.25967
C         58.53466        42.24891        -0.48980
C         59.86064        44.14092        -1.45761
C         58.51830        43.59128        -0.98937
C         59.87820        45.65392        -1.72923
C         58.57099        46.35264        -2.01153
C         59.87656        48.59344        -2.03538
C         58.55738        47.86942        -2.06026
C         59.84077        50.08926        -1.87494
C         58.56028        50.76478        -1.54436
C         59.83757        52.89817        -1.22196
C         58.57692        52.15420        -1.27768
C         59.85893        54.31623        -1.13894
C         58.55595        55.06289        -1.30984
C         59.78283        57.23627        -1.00153
C         58.61840        56.50890        -0.85642
C         59.82880        58.66172        -0.77577
C         58.62461        59.38327        -0.48875
C         59.83908        61.55171        -0.67866
C         58.63263        60.74380        -0.27639
C         59.90111        62.94841        -0.10718
C         58.69006        63.61277         0.25421
C         59.96346        65.67009         0.56062
C         58.76180        64.99269         0.58192
C         62.21812        35.90717         0.92876
C         62.20812        37.33420         0.67613
C         60.96793        38.04374         0.53404
C         62.23108        40.13741         0.18522
C         60.98492        39.44219         0.25624
C         62.24552        41.55275        -0.04879
C         61.01229        42.21611        -0.29188
C         62.21916        44.46412        -0.41718
C         60.96152        43.67769        -0.52592
C         62.29052        45.81320        -1.02182
C         61.11171        46.46230        -1.44618
C         62.35364        48.57944        -1.55974
C         61.12689        47.86145        -1.69459
C         62.39983        50.05089        -1.47684
C         61.13611        50.81105        -1.65089
C         62.28567        52.91375        -1.03543
C         61.08430        52.22318        -1.22116
C         62.31386        54.33599        -1.01772
C         61.05956        55.02265        -1.10562
C         62.33358        57.22426        -1.14596
C         61.04293        56.49647        -1.27908
C         62.32004        58.68454        -0.88497
C         61.07421        59.38340        -0.69777
C         62.41224        61.47503        -0.24460
C         61.11340        60.76209        -0.53893
C         62.36115        62.95178        -0.67887
C         61.11570        63.64571        -0.15247
C         62.43054        65.74425         0.16964
C         61.16885        65.02358         0.18959
C         62.48166        67.12774         0.32905
C         64.63581        35.89614         1.26465
C         63.36333        35.23618         1.24470
C         64.70875        37.23159         0.56825
C         63.42420        38.02452         0.60097
C         64.70363        40.14082         0.31376
C         63.45328        39.43704         0.37804
C         64.72867        41.55177         0.09871
C         63.49541        42.25436        -0.02050
C         64.79988        44.43789        -0.33492
C         63.48050        43.72999        -0.05622
C         64.77460        45.77776        -0.92602
C         63.55247        46.48059        -1.11287
C         64.83415        48.64504        -1.62834
C         63.55655        47.86850        -1.42644
C         64.80432        49.93084        -0.81294
C         63.54121        50.71037        -1.12333
C         64.79723        52.91572        -1.04602
C         63.53942        52.16240        -0.69533
C         64.80675        54.32204        -1.14178
C         63.56275        55.02575        -1.02646
C         64.77894        57.21497        -1.34040
C         63.59905        56.49579        -0.72157
C         64.58859        58.53191        -1.60325
C         63.51124        59.36041        -1.08249
C         64.88600        61.43188        -0.61529
C         63.66968        60.76729        -0.76818
C         64.82822        62.81267        -0.05072
C         63.63856        63.64211        -0.25094
C         64.93364        65.71302         0.19840
C         63.67134        65.00135         0.05946
C         64.91646        67.14021         0.25709
C         63.70564        67.81804         0.32260
C         66.89552        33.28916         2.69243
C         65.79854        33.91824         2.22825
C         67.00454        36.07102         1.89436
C         65.78735        35.30429         1.77619
C         67.11074        37.37136         1.37256
C         65.93168        38.05092         0.87633
C         67.21398        40.06759         0.25720
C         65.92416        39.40582         0.55007
C         67.27569        41.52870         0.03159
C         66.00973        42.26655        -0.04095
C         67.30078        44.36150        -0.44237
C         66.02745        43.61647        -0.35837
C         67.34335        45.68269        -1.14610
C         66.04075        46.41004        -1.34154
C         67.29852        48.55480        -1.25784
C         66.10825        47.87553        -1.38037
C         67.27065        50.02082        -1.21267
C         66.09367        50.69920        -1.05228
C         67.31852        52.94789        -1.03018
C         66.05233        52.17229        -0.89963
C         67.26451        54.39094        -1.33540
C         66.05243        55.06129        -1.35035
C         67.36119        57.25168        -1.26293
C         66.07075        56.53092        -1.76316
C         67.45552        58.67127        -0.97322
C         66.42859        59.58713        -1.33442
C         67.39999        61.42816        -0.16468
C         66.21336        60.82159        -0.70848
C         67.42186        62.81341         0.13520
C         66.14844        63.53942         0.26129
C         67.43351        65.65165         0.28357
C         66.16478        65.00403         0.20906
C         67.46640        67.13598         0.32667
C         66.19518        67.90952        -0.00949
C         67.17233        69.83582         1.33246
C         66.21980        69.31927         0.54534
C         69.44213        31.90068         2.07177
C         69.38962        33.40347         2.08571
C         68.21057        33.97365         2.93882
C         69.44582        36.20562         2.61073
C         68.13459        35.48018         2.64292
C         69.51191        37.52596         1.96599
C         68.38218        38.07433         1.40139
C         69.80011        40.04965         0.56323
C         68.48420        39.32800         0.61867
C         69.81607        41.47362         0.05280
C         68.50546        42.14983        -0.10250
C         69.86800        44.23361        -0.70219
C         68.58046        43.61396        -0.24702
C         69.86502        45.72389        -1.02059
C         68.59395        46.47433        -1.06427
C         69.84025        48.60250        -1.10826
C         68.58133        47.85454        -1.15232
C         69.84679        50.01938        -1.19405
C         68.56236        50.73277        -1.42030
C         69.82004        52.98504        -1.24915
C         68.56646        52.22031        -1.39314
C         69.77376        54.35105        -1.38008
C         68.52171        55.07756        -1.41618
C         69.75562        57.01761        -0.52415
C         68.52863        56.48112        -1.16908
C         69.75002        58.45198         0.00306
C         68.57665        59.26839        -0.33020
C         69.82284        61.29874         0.38150
C         68.60758        60.66311        -0.07938
C         69.83825        62.70872         0.60739
C         68.62845        63.48543         0.40865
C         69.84825        65.62574         0.92087
C         68.61269        64.91711         0.51096
C         69.71881        66.95582         1.53970
C         68.56895        67.77957         1.11602
C         69.52949        69.72032         2.37496
C         68.25750        68.99683         1.96285
C         69.53719        71.09246         2.65652
C         71.83426        31.89029         2.52603
C         70.58988        31.21138         2.24939
C         71.88102        33.24617         2.65487
C         70.69556        34.06007         2.53337
C         71.91797        36.21778         2.91106
C         70.71420        35.42946         2.72062
C         71.94512        37.55231         2.67064
C         70.76976        38.29050         2.16679
C         72.19190        40.33212         1.27784
C         70.90958        39.63022         1.47665
C         72.21966        41.58482         0.73650
C         71.05390        42.27682         0.25963
C         72.28984        44.38938        -0.22785
C         71.11154        43.61023        -0.19738
C         72.28406        45.75198        -0.53923
C         71.11662        46.46871        -0.83751
C         72.27061        48.66485        -0.83885
C         71.07851        47.90906        -0.93269
C         72.24900        50.04816        -0.87564
C         71.04604        50.75423        -1.05938
C         72.29190        52.99033        -1.39854
C         71.08099        52.26519        -0.85104
C         72.27976        54.30892        -1.63771
C         71.03131        55.15849        -1.64244
C         72.19539        57.00638        -0.30371
C         71.05922        56.39210        -0.76153
C         72.18427        58.33713         0.22557
C         71.03835        59.10705         0.26811
C         72.17622        61.18848         1.02301
C         71.02176        60.53853         0.55651
C         72.17052        62.55378         1.30181
C         71.02448        63.32679         1.08567
C         71.95714        65.38093         2.31497
C         71.07314        64.79895         1.29516
C         71.83761        66.67671         2.70681
C         70.74520        67.52064         2.26783
C         71.85729        69.61034         3.07352
C         70.70322        68.95555         2.60330
C         71.85217        70.97898         3.33620
C         70.68994        71.72344         3.12978
O         68.52999        51.51253        -2.69101
O         69.47864        57.31656         0.89254
O         59.41278        45.86596        -3.10179
O         46.95835        48.07794         1.03596
O         59.22182        48.28718        -3.31238
O         49.54873        53.82382         1.62820
O         66.83440        52.62599         0.31813
O         65.55946        59.20443        -2.36155
O         61.19434        44.46131         0.67724
O         64.19335        44.38254         1.03272
O         42.88803        55.00316        -0.30734
O         68.57077        67.84476        -0.34974
O         69.91472        44.66969        -2.08271
O         52.44318        54.12605        -1.84682
O         50.31107        53.06895        -2.05119
O         47.14313        56.33413         2.97258
O         51.11733        58.73963         2.36392
O         68.57246        36.25146         3.81890
O         67.92790        39.22903        -0.72900
O         67.99057        44.38407         0.86382
O         70.16436        40.31993        -0.81100
O         55.26328        48.28272        -3.06536
O         66.71272        45.68470        -2.46795
O         60.55814        50.71093        -3.00514
O         61.81272        56.90489        -2.47740
O         48.26188        51.67595        -1.98935
O         71.00767        65.52572         0.02219
O         70.49344        39.56441         2.88560
O         51.63473        55.21729         1.68051
O         65.32537        62.94190         1.32896
O         60.15570        43.47686        -2.71075
H         59.67030        43.97613        -3.41042
O         55.69993        55.00825        -2.14815
H         56.48307        55.26749        -2.69217
O         62.51899        61.50997         1.20822
H         62.58130        60.58885         1.53713
O         63.55790        52.08290         0.80049
H         63.81575        52.96813         1.13828
O         63.66279        56.62810         0.73750
H         64.50443        56.22567         1.03992
O         67.69703        68.42819         3.19171
H         67.57191        69.15962         3.83205
O         71.16212        52.39626         0.61231
H         71.12755        53.35156         0.83267
O         57.04371        58.56390        -2.02160
H         57.12561        59.47023        -2.38730
O         57.76199        57.13052         1.26455
H         57.93166        56.17974         1.48194
O         51.94668        58.78067        -1.22421
H         52.64141        58.41832        -1.81494
O         64.89367        36.86689        -0.86369
H         65.19148        37.67414        -1.33692
O         64.86848        49.05767        -3.02308
H         64.95454        48.25621        -3.58077
O         66.20242        68.06694        -1.46076
H         67.12926        68.29089        -1.70624
O         41.78283        48.73652        -1.59162
H         40.95030        49.25218        -1.53953
O         58.27212        55.07349        -2.73996
H         58.99930        55.55353        -3.19122
O         68.54836        33.76362         4.31921
H         68.67262        34.65907         4.72001
O         62.27809        62.95184        -2.14113
H         62.32052        63.88324        -2.44569
O         66.13505        56.54549        -3.21783
H         66.03562        57.48399        -3.49540
O         57.80405        61.18562         1.88549
H         57.04715        61.53154         2.40523
O         45.73735        52.45452        -1.77395
H         46.52308        52.12712        -2.27905
O         64.75937        49.58816         0.59101
H         64.50046        50.40783         1.07776
O         57.83435        54.37573         0.82256
H         57.08246        54.00324         1.35129
O         55.31194        53.94088         1.33854
H         54.72268        54.48389         1.90592
O         46.32385        53.89932         2.64381
H         46.95676        54.38949         3.21967
O         49.50160        43.95432        -2.49733
H         50.22753        44.29810        -3.06045
O         47.20169        45.37337        -2.38186
H         47.95011        44.77172        -2.63096
O         69.12499        33.84522         0.72324
H         69.78304        33.42220         0.13292
O         56.97024        45.16709        -3.34507
H         57.02062        45.96840        -3.90964
O         59.70615        61.75918        -2.14519
H         60.56902        62.14523        -2.44533
O         70.89287        55.67354        -3.00331
H         70.68857        54.91593        -3.59136
H         37.81471        48.62876         2.00664
H         35.82638        49.71585         2.96014
H         37.73807        53.56599         2.73426
H         35.79121        52.19303         3.32681
H         39.50545        47.78082         1.67751
H         39.26557        54.60052         2.33675
H         41.35954        46.70967         0.52917
H         41.11378        55.96918         1.54632
H         44.86577        44.88078        -1.39218
H         42.71561        46.05464        -0.95947
H         45.05052        57.86371         2.35672
H         42.92870        56.96115         1.60366
H         46.68331        44.07052         0.42078
H         46.66329        58.92573         1.86566
H         48.82660        42.85372         0.32149
H         48.73011        60.18898         1.68507
H         52.32774        40.51221        -0.25978
H         50.21986        41.69899        -0.62921
H         52.38932        62.46668         0.57182
H         50.33915        61.25750         1.05513
H         53.91014        39.70347         0.34855
H         54.08300        63.40910         0.74696
H         55.99908        38.51243         0.65204
H         56.15501        64.63357         0.48634
H         59.67009        36.31321         0.87724
H         57.59031        37.52488         0.63960
H         59.97309        66.72934         0.84919
H         57.85516        65.53284         0.88583
H         61.27148        35.35235         0.92857
H         61.55751        67.71478         0.41118
H         63.29021        34.17644         1.52421
H         63.68988        68.91523         0.36322
H         66.81876        32.23774         3.00687
H         64.86998        33.33793         2.13618
H         67.10160        70.89887         1.61045
H         65.44711        69.99736         0.14993
H         68.50900        31.36614         1.84015
H         68.63134        71.69541         2.50266
H         72.74792        31.29195         2.64592
H         70.59291        30.11329         2.19224
H         72.83840        33.73290         2.88929
H         72.84152        35.71591         3.23409
H         72.86903        38.12080         2.84727
H         73.11494        39.88661         1.67392
H         73.18712        42.10470         0.69256
H         73.24878        43.93464         0.05461
H         73.24320        46.28258        -0.47060
H         73.23559        48.15913        -0.70724
H         73.19102        50.59542        -0.73733
H         73.24135        52.44104        -1.49122
H         73.20127        54.80155        -1.98641
H         73.17216        56.52128        -0.44633
H         73.15815        58.78355         0.47040
H         73.10219        60.62036         1.18246
H         73.09200        63.02927         1.66460
H         72.70995        64.73756         2.79326
H         72.54142        67.06981         3.45403
H         72.78579        69.04387         3.22643
H         72.76462        71.47004         3.70143
H         70.67732        72.80209         3.33741
