         424
 CSIRO Nanostructure Databank - Neutral Graphene Oxide Data Set
C          1.20042         3.55502         1.27291
C          0.00497         4.25204         1.30093
C          1.17758         6.36725         0.91743
C         -0.01004         5.64507         1.13807
C          1.18068         7.81931         0.79270
C          0.00131         8.57072         0.97894
C          1.18853        10.65347         0.56885
C          0.00303         9.95267         0.88103
C          1.19025        12.11721         0.41871
C         -0.03247        12.83678         0.29321
C          1.17468        14.95164         0.12935
C         -0.03865        14.20517         0.17049
C          1.17212        16.36396        -0.05497
C         -0.05549        17.13525        -0.01571
C          1.13106        19.13558        -0.78969
C         -0.08843        18.45526        -0.31376
C          1.13687        20.58030        -1.22397
C         -0.09056        21.39241        -1.11364
C          1.18203        23.49055        -0.98202
C         -0.05720        22.74289        -1.02573
C          1.17674        24.93278        -0.93967
C         -0.01048        25.68220        -0.79018
C          1.14742        27.81794        -1.03479
C          0.00432        27.09468        -0.78013
C          1.13433        29.31029        -1.26732
C         -0.07122        30.01461        -0.71414
C          1.20283        32.07887        -0.39423
C         -0.02542        31.31855        -0.35546
C          1.20993        33.48420        -0.10564
C          0.00776        34.22157         0.06083
C          1.22897        36.24619         0.65739
C          0.01429        35.55861         0.42163
C          1.24949        37.62247         1.05018
C          3.65042         3.54104         1.07694
C          2.42617         4.24243         1.04987
C          3.64153         6.35070         0.55607
C          2.41066         5.66118         0.83548
C          3.64243         7.78476         0.37586
C          2.39400         8.51205         0.51179
C          3.61835        10.68106        -0.02785
C          2.37945         9.92445         0.39678
C          3.67489        12.05771         0.62829
C          2.39580        12.82210         0.38603
C          3.65781        14.94455         0.15485
C          2.41970        14.24036         0.22734
C          3.64987        16.35283        -0.07300
C          2.40440        17.04830        -0.22631
C          3.61578        19.16073        -0.53184
C          2.41855        18.45392        -0.49138
C          3.56161        20.67055        -0.44477
C          2.48084        21.31648        -1.33547
C          3.62430        23.50123        -0.84646
C          2.40823        22.80332        -1.01035
C          3.62948        24.93747        -0.88942
C          2.41492        25.63296        -1.02964
C          3.67162        27.83710        -0.96487
C          2.42086        27.09771        -1.39341
C          3.66117        29.23295        -0.84165
C          2.42832        29.98704        -0.86370
C          3.70526        32.14302        -0.75540
C          2.41843        31.36590        -0.61171
C          3.69137        33.50409        -0.11098
C          2.46143        34.17409         0.07791
C          3.69092        36.22752         0.70473
C          2.46162        35.54728         0.48852
C          3.69246        37.61125         1.09782
C          2.43272        38.28090         1.26397
C          6.11272         3.52408         0.95030
C          4.87472         4.21258         0.86998
C          6.11154         6.25801         0.21123
C          4.84359         5.61141         0.54810
C          6.12412         7.77972         0.04509
C          4.85461         8.50265         0.21755
C          6.12641        10.62819         0.14065
C          4.90402         9.91891         0.18566
C          6.13233        12.08059         0.10680
C          4.92748        12.80450         0.23331
C          6.14894        14.90947         0.02586
C          4.92015        14.21721         0.16812
C          6.18183        16.41634         0.11715
C          4.86394        17.08529        -0.18990
C          6.11754        19.20091        -0.56923
C          4.85937        18.46798        -0.41893
C          6.10022        20.63377        -0.69071
C          4.88490        21.35486        -0.68015
C          6.10724        23.46848        -0.74622
C          4.87938        22.76597        -0.76654
C          6.09759        24.92365        -0.36083
C          4.86007        25.67430        -0.77721
C          6.13334        27.78338        -0.60807
C          4.88112        27.07755        -0.79696
C          6.13316        29.19496        -0.49013
C          4.90896        29.93965        -0.57353
C          6.15016        32.02937        -0.17280
C          4.93274        31.33431        -0.43284
C          6.15938        33.44147         0.05014
C          4.91477        34.15741         0.14373
C          6.15347        36.22055         0.74259
C          4.92396        35.53696         0.54028
C          6.15175        37.60704         1.13381
C          4.90633        38.27241         1.30962
C          8.60349         3.54149         1.06803
C          7.35751         4.20922         0.87192
C          8.58985         6.39683         0.83078
C          7.36164         5.58716         0.55144
C          8.60853         7.80043         0.28598
C          7.39773         8.50977         0.18415
C          8.61765        10.64464         0.08455
C          7.37995         9.92822         0.13644
C          8.59864        12.04993         0.00134
C          7.37294        12.78212        -0.01004
C          8.61965        14.96319        -0.15428
C          7.37341        14.21728        -0.04229
C          8.61788        16.34011        -0.41742
C          7.29834        16.99974        -0.74099
C          8.56506        19.19520        -0.80424
C          7.32890        18.50765        -0.64346
C          8.54950        20.60076        -0.95546
C          7.33772        21.33240        -0.88385
C          8.55720        23.51601        -0.94812
C          7.33266        22.77484        -0.86976
C          8.56653        24.92371        -0.84923
C          7.37496        25.64415        -0.67843
C          8.60966        27.77306        -0.52016
C          7.36997        27.06945        -0.62456
C          8.59902        29.17332        -0.28216
C          7.36802        29.89056        -0.29640
C          8.61228        31.99047         0.06369
C          7.37562        31.30146        -0.12222
C          8.61707        33.40704         0.25753
C          7.39051        34.12180         0.27764
C          8.61599        36.22116         0.74375
C          7.39287        35.53192         0.57716
C          8.62150        37.63199         1.10225
C          7.37294        38.27811         1.32951
C         11.07122         3.52411         0.94681
C          9.84079         4.21782         0.88788
C         11.07152         6.32372         0.45165
C          9.86277         5.63154         0.65456
C         11.07492         7.74157         0.18074
C          9.84476         8.46263         0.12209
C         11.06989        10.55012        -0.27622
C          9.86567         9.90494        -0.03291
C         11.16358        11.99785        -0.10652
C          9.86887        12.78115         0.04384
C         11.06555        14.89778        -0.38860
C          9.87988        14.24410        -0.18996
C         11.11570        16.38652        -0.14026
C          9.82696        17.08305        -0.52716
C         11.07797        19.19566        -0.85717
C          9.82277        18.46759        -0.76116
C         11.08839        20.58338        -1.04878
C          9.81329        21.29790        -1.25254
C         11.09576        23.51093        -1.03448
C          9.81244        22.81033        -1.26196
C         11.09844        24.89437        -0.88611
C          9.83983        25.67822        -1.17537
C         11.05224        27.70206        -0.27679
C          9.85558        27.07205        -0.60043
C         11.07122        29.11901         0.03686
C          9.82660        29.87055        -0.06909
C         11.15801        31.96391         0.13807
C          9.82668        31.25931         0.08414
C         11.08307        33.39317         0.59850
C          9.85621        34.09210         0.51283
C         11.08657        36.18026         0.89603
C          9.85125        35.50412         0.68894
C         11.08174        37.67192         0.67205
C          9.83245        38.31828         1.19562
C         13.52798         3.52633         0.94946
C         12.30175         4.20287         0.79215
C         13.53769         6.30312         0.30158
C         12.30792         5.61610         0.51022
C         13.51059         7.68539        -0.09373
C         12.31035         8.38461        -0.13717
C         13.59622        10.53701        -0.59565
C         12.27959         9.77617        -0.73843
C         13.55446        12.00066        -0.72032
C         12.39037        12.69870        -0.55002
C         13.57020        14.91246        -0.47882
C         12.30052        14.17952        -0.88475
C         13.57976        16.38673        -0.65489
C         12.36680        17.07876        -0.62397
C         13.55637        19.18619        -1.01731
C         12.33352        18.48460        -0.81887
C         13.55417        20.62656        -1.07790
C         12.31689        21.32314        -1.07352
C         13.54516        23.46631        -0.93276
C         12.31347        22.76066        -1.01809
C         13.54746        24.88155        -0.66929
C         12.31983        25.58670        -0.62701
C         13.49845        27.60446         0.12821
C         12.31118        26.97760        -0.27325
C         13.44339        28.94098         0.82027
C         12.23028        29.74080         0.44837
C         13.51055        31.87484         0.97295
C         12.17393        31.16572         0.94285
C         13.51210        33.28331         1.12860
C         12.26673        34.04177         1.00249
C         13.42299        36.18967         1.77178
C         12.25412        35.46251         1.14515
C         13.52014        37.64127         1.31780
C         12.37105        38.34374         1.02309
C         15.95090         3.60619         1.29781
C         14.76067         4.23236         0.92727
C         16.01952         6.30852         0.38768
C         14.76641         5.62813         0.53015
C         16.05859         7.63011        -0.29616
C         14.73997         8.30861        -0.71828
C         16.08253        10.51979        -0.78725
C         14.76894         9.83263        -0.60261
C         16.10385        12.01050        -1.02845
C         14.78421        12.76127        -1.20491
C         16.10429        14.91628        -0.78519
C         14.84419        14.16135        -0.61402
C         16.07680        16.32941        -0.93603
C         14.80605        17.06100        -0.94025
C         16.00905        19.19214        -1.46693
C         14.77459        18.45877        -1.12142
C         16.05081        20.65282        -1.25967
C         14.78465        21.36112        -1.12155
C         16.04882        23.53772        -1.25699
C         14.77008        22.76059        -1.06251
C         16.02573        24.92478        -0.65260
C         14.77003        25.57831        -0.41870
C         15.97865        27.63676         0.27381
C         14.74972        26.93219         0.01562
C         15.96241        29.01644         0.62497
C         14.72991        29.73044         0.76320
C         15.99535        31.82190         1.33387
C         14.70859        31.12021         0.97179
C         15.97842        33.31799         1.15981
C         14.74557        33.98700         1.30398
C         16.05140        36.16628         1.58083
C         14.74320        35.42072         1.66762
C         16.02127        37.64005         1.36505
C         14.77310        38.30553         1.28236
C         18.44555         3.68058         1.61119
C         17.14423         4.43460         1.63921
C         18.45065         6.44006         0.85565
C         17.19482         5.73292         0.86563
C         18.50257         7.80986         0.50449
C         17.32853         8.43383        -0.12728
C         18.49383        10.62846        -0.14008
C         17.31678         9.89677        -0.28747
C         18.50717        12.06878        -0.36373
C         17.32841        12.75996        -0.67820
C         18.55298        14.92325        -0.67514
C         17.31766        14.20435        -0.72266
C         18.54731        16.34110        -0.84503
C         17.30621        17.01401        -1.03662
C         18.56942        19.20664        -1.18616
C         17.33090        18.44116        -1.38791
C         18.53171        20.62186        -1.24934
C         17.25730        21.31473        -1.18863
C         18.50864        23.49569        -1.03587
C         17.25682        22.75426        -0.71873
C         18.48216        24.98743        -1.03047
C         17.21628        25.59689        -0.47030
C         18.45196        27.59570         0.27106
C         17.23916        26.95523         0.03792
C         18.50088        28.99315         0.82184
C         17.20755        29.74788         0.68957
C         18.44112        31.87329         0.61534
C         17.22913        31.12995         0.82054
C         18.42278        33.30462         0.65402
C         17.20720        34.01552         1.00030
C         18.43066        36.15343         0.87675
C         17.25678        35.43992         1.11580
C         18.53280        37.61136         1.28401
C         17.21094        38.30940         1.17204
C         19.61449         4.33988         1.49106
C         20.83878         6.50635         1.34336
C         19.64442         5.77393         1.25459
C         20.86211         7.87020         1.07129
C         19.70086         8.54835         0.63068
C         20.87655        10.72229         0.41326
C         19.71221         9.97027         0.29560
C         20.89968        12.10035         0.14697
C         19.74692        12.79372        -0.21901
C         20.97529        14.96105        -0.48515
C         19.77692        14.22616        -0.46704
C         20.97599        16.34264        -0.67498
C         19.78555        17.06427        -0.84112
C         20.97416        19.28244        -0.91212
C         19.78989        18.52184        -0.97711
C         20.95382        20.66351        -1.11566
C         19.74946        21.35176        -1.28775
C         20.97239        23.59727        -1.42272
C         19.69305        22.82234        -1.66607
C         20.99998        24.82425        -0.88097
C         19.76441        25.47838        -0.36857
C         20.96900        27.65985         0.28994
C         19.74110        26.86927         0.23826
C         20.92511        29.03274         0.22531
C         19.71138        29.76073         0.34924
C         20.78217        31.95140        -0.12831
C         19.64833        31.17764         0.26783
C         20.74679        33.32402        -0.11899
C         19.58391        34.03769         0.29129
C         20.66226        36.26000        -0.11246
C         19.58797        35.48740         0.34914
C         20.61041        37.68426        -0.09488
C         19.59688        38.35227         0.52355
O         10.69026        12.44085         1.22536
O          1.02590        19.52138        -2.23863
O         16.28287        11.07785        -2.15759
O         19.71967        25.62214         1.06321
O         17.00753         7.69691        -1.40900
O          6.12702         6.89878        -1.13479
O         15.56442        35.68038         2.87411
O         16.67005        18.72083        -2.68285
O          9.77056        22.05581        -2.52813
O         14.22788        14.34849         0.70534
O          6.50703        16.74795         1.50323
H          5.81150        16.36216         2.07557
O          3.15531        20.96232         0.93077
H          3.87832        20.67487         1.52695
O         16.25857        23.69821        -2.69721
H         15.39332        23.90746        -3.10872
O         16.95215         4.82334         3.06878
H         16.06354         5.23474         3.13438
O          1.06006        29.47107        -2.75434
H          1.05158        30.43620        -2.93609
O          3.77172        11.82565         2.06667
H          3.78036        12.69719         2.51404
O         18.68676        28.85115         2.29003
H         17.89117        28.39465         2.63922
O         18.54800        25.42463        -2.43996
H         17.72650        25.06180        -2.85790
O         16.08132        31.65090         2.80701
H         16.87240        32.14442         3.11331
O          6.02960        24.89785         1.13376
H          6.84180        24.44594         1.44853
O          8.48392         6.62261         2.31696
H          8.63134         5.74977         2.74366
O         11.72135        31.09390         2.32245
H         12.33658        30.48094         2.78874
O         18.92820        37.62230         2.70770
H         19.79070        37.16050         2.77292
O         13.08001        36.25541         3.18504
H         13.93455        36.26520         3.67782
O         14.57887         8.05155        -2.15030
H         15.49182         8.06218        -2.52977
O         11.67488        31.99520        -1.23088
H         11.02089        32.46624        -1.78853
O          6.97748        16.67612        -2.12290
H          7.68549        17.04020        -2.69424
O         19.48833        22.84812        -3.12103
H         19.32954        23.79283        -3.35436
O          3.51236        10.90931        -1.46345
H          3.51859        10.03726        -1.91090
O         17.08101        22.72024         0.73724
H         17.92727        22.43336         1.14017
O          2.91548        21.23429        -2.70660
H          2.45485        20.45952        -3.10684
O         13.26744        28.63998         2.27183
H         12.53579        27.98931         2.34338
O         12.20227        14.27247        -2.33860
H         12.99593        13.81594        -2.72192
O         10.99201        37.82808        -0.81108
H         10.12971        37.44880        -1.08776
O          2.46863        27.10944        -2.87596
H          2.05298        27.95905        -3.16779
O         12.13495         9.58056        -2.18308
H         12.89235         9.00874        -2.46523
O         14.61511        12.97475        -2.63725
H         14.97171        12.16677        -3.08009
O          9.82683        25.86515        -2.63492
H          9.74298        24.97594        -3.04246
O          3.80058        32.42017        -2.21173
H          3.95024        31.55909        -2.65837
O         11.18764        16.52131         1.33033
H         10.43843        16.01377         1.71033
H          1.21690         2.46652         1.42559
H         -0.94089         3.71787         1.46750
H         -0.97634         6.16400         1.18399
H         -0.94323         8.06594         1.22015
H         -0.93469        10.49652         1.05642
H         -0.98916        12.29781         0.28237
H         -1.00183        14.72174         0.06730
H         -0.98619        16.63860         0.29129
H         -1.03932        19.00479        -0.28126
H         -1.05757        20.87300        -1.16918
H         -1.00982        23.28852        -0.98808
H         -0.97627        25.17835        -0.65553
H         -0.95217        27.60503        -0.60075
H         -1.03935        29.49596        -0.70739
H         -0.94965        31.80661        -0.01628
H         -0.96114        33.73242        -0.10710
H         -0.93748        36.09766         0.53551
H          0.29196        38.14858         1.17777
H          3.65124         2.46002         1.27932
H          2.43319        39.33852         1.56561
H          6.10819         2.44439         1.15868
H          4.90348        39.33011         1.61278
H          8.60701         2.46236         1.27575
H          7.36583        39.33892         1.62098
H         11.07415         2.44217         1.14449
H          9.83967        39.38575         1.46194
H         13.52881         2.45436         1.19597
H         12.45173        39.41577         0.77968
H         15.93568         2.54717         1.59671
H         14.77958        39.38677         1.07188
H         18.42424         2.59581         1.79293
H         17.19595        39.38377         0.93259
H         20.57409         3.80472         1.55517
H         21.76447         5.99570         1.64538
H         21.81470         8.40672         1.16992
H         21.81458        10.24735         0.72823
H         21.85441        12.63059         0.25855
H         21.94026        14.45460        -0.35164
H         21.94260        16.86351        -0.68280
H         21.94326        18.79140        -0.75333
H         21.90810        21.20753        -1.13311
H         21.90580        23.16410        -1.81352
H         21.96148        25.34694        -0.76376
H         21.93682        27.14095         0.30471
H         21.87541        29.57909         0.13717
H         21.70620        31.44569        -0.43824
H         21.64803        33.87546        -0.41745
H         21.54152        35.78267        -0.56361
H         21.42022        38.24287        -0.58701
H         19.58898        39.45156         0.55460
