         732
 CSIRO Nanostructure Databank - Neutral Graphene Oxide Data Set
C         23.05600        24.35130        -1.77571
C         21.81421        25.07017        -1.85726
C         22.97985        27.20606        -1.59966
C         21.77918        26.43677        -1.73228
C         22.96885        28.57922        -1.32075
C         21.77315        29.35321        -1.20975
C         22.95005        31.52436        -1.19920
C         21.76814        30.73647        -1.16829
C         22.95616        32.93869        -1.33189
C         21.74198        33.69247        -1.36682
C         22.96246        35.80737        -1.24607
C         21.74455        35.06351        -1.31946
C         22.96699        37.23886        -1.06772
C         21.76644        37.98776        -1.04063
C         22.98292        40.04826        -0.58922
C         21.78256        39.35711        -0.80735
C         22.95521        41.54586        -0.43317
C         21.82595        42.03317         0.43689
C         23.04762        44.10418         0.85503
C         21.86694        43.27796         0.96569
C         23.03933        45.48689         1.21721
C         21.85090        46.14018         1.61492
C         23.01225        48.21918         2.06454
C         21.87224        47.47039         2.10666
C         25.71746        22.85260        -1.83814
C         25.52583        24.26811        -1.47957
C         24.25127        25.00601        -1.72708
C         25.53382        27.22847        -1.52541
C         24.27626        26.50810        -1.96749
C         25.52402        28.63894        -1.37023
C         24.24184        29.29437        -1.08088
C         25.48812        31.54307        -1.27728
C         24.22972        30.82666        -1.00697
C         25.42868        32.94583        -1.44799
C         24.20341        33.65902        -1.39205
C         25.41445        35.83981        -1.24343
C         24.19084        35.10351        -1.33798
C         25.42390        37.20522        -0.94791
C         24.20572        37.92928        -0.88240
C         25.44969        40.07346        -0.57733
C         24.21778        39.35917        -0.66366
C         25.48784        41.44929        -0.21543
C         24.27167        42.14405        -0.00196
C         25.51302        44.18468         0.60904
C         24.27233        43.48099         0.46928
C         25.49995        45.57057         0.97725
C         24.27905        46.21423         1.21285
C         25.51269        48.33575         1.85961
C         24.22187        47.72282         1.31854
C         25.52236        49.82561         1.64797
C         28.14513        22.97748        -1.40404
C         26.92846        22.24362        -1.69969
C         28.08680        24.36057        -1.43490
C         26.80301        25.07348        -1.33762
C         27.96465        27.29787        -1.48563
C         26.75264        26.55348        -1.46522
C         27.96961        28.71845        -1.50486
C         26.72457        29.39779        -1.35376
C         27.96642        31.55557        -1.47244
C         26.71386        30.83913        -1.34486
C         27.96996        32.95630        -1.58288
C         26.68569        33.66013        -1.71421
C         27.96479        35.84543        -1.33857
C         26.67903        35.16844        -1.57865
C         27.97402        37.21094        -1.03842
C         26.71296        37.90935        -0.57607
C         27.98969        40.06350        -0.60607
C         26.70722        39.37259        -1.01699
C         27.99212        41.42500        -0.17535
C         26.74548        42.12823         0.00447
C         27.97799        44.20922         0.58833
C         26.73993        43.50416         0.37494
C         28.00638        45.57550         0.87635
C         26.76275        46.30210         1.04686
C         27.99027        48.41888         1.27467
C         26.76791        47.66223         1.33617
C         27.94772        49.81606         1.37910
C         26.68229        50.49985         1.49638
C         30.62211        20.32762        -0.18687
C         29.47181        20.90837        -0.72971
C         30.54749        23.06050        -0.74741
C         29.40071        22.30996        -1.00628
C         30.58940        24.51226        -0.98428
C         29.30120        25.18968        -1.30284
C         30.29466        27.36628        -2.06871
C         29.19319        26.61244        -1.70220
C         30.43608        28.74988        -1.80427
C         29.21152        29.43874        -1.58402
C         30.45415        31.55110        -1.71117
C         29.21636        30.85955        -1.54422
C         30.43187        32.98813        -1.73996
C         29.19364        33.68549        -1.65224
C         30.40072        35.84639        -1.51949
C         29.17567        35.12498        -1.53175
C         30.40206        37.26302        -1.31569
C         29.19140        37.93778        -1.04927
C         30.43984        40.06910        -0.69668
C         29.18981        39.36785        -0.77041
C         30.45837        41.42599        -0.22247
C         29.23218        42.05443         0.11699
C         30.52369        44.10494         1.03152
C         29.21516        43.41482         0.70443
C         30.52771        45.59705         0.99754
C         29.27244        46.28157         0.99501
C         30.45607        48.41780         0.96800
C         29.24280        47.70483         1.07770
C         30.47142        49.90453         1.04072
C         29.17908        50.62991         1.27421
C         30.38852        52.47489         2.41675
C         29.24000        51.94825         1.95610
C         32.94894        19.10356         1.09416
C         32.89064        20.51105         0.88241
C         31.70868        21.08327         0.28432
C         32.84568        23.33086         0.33396
C         31.54168        22.57517         0.27474
C         32.96615        24.60421        -0.19121
C         31.93123        25.15011        -1.03317
C         33.13767        27.32462        -1.22890
C         32.16415        26.35882        -1.64617
C         33.00640        28.71891        -1.45794
C         31.72675        29.41123        -1.75134
C         32.98154        31.54931        -2.06604
C         31.69023        30.82146        -1.77063
C         32.91684        33.04699        -1.89736
C         31.65999        33.73586        -1.85721
C         32.81226        35.93745        -2.06413
C         31.61477        35.14619        -1.76734
C         32.80612        37.38207        -1.79857
C         31.64075        38.01315        -1.39993
C         32.86613        40.16565        -1.09319
C         31.63707        39.42871        -1.07430
C         32.89770        41.51207        -0.56384
C         31.71493        42.10716        -0.10557
C         33.08748        44.10430         0.76876
C         31.81344        43.25440         0.87811
C         33.05505        45.58801         1.04983
C         31.74579        46.32613         0.95808
C         32.80019        48.66817         0.38843
C         31.68267        47.74029         0.81793
C         32.92575        49.91769         1.23175
C         31.72764        50.52932         1.53310
C         33.04809        52.51642         2.48668
C         31.68024        51.76461         2.31365
C         33.07487        53.96249         2.71720
C         35.21388        19.27248         1.99856
C         34.05880        18.52273         1.65378
C         35.19111        20.70542         1.83384
C         34.00243        21.29715         1.29153
C         35.17749        23.52791         1.24213
C         33.86318        22.80259         1.30501
C         35.23248        24.85228         0.75806
C         34.14893        25.41838         0.00317
C         35.36616        27.56615        -0.19794
C         34.21978        26.75137        -0.46227
C         35.36804        28.92432        -0.58809
C         34.17635        29.53233        -1.14747
C         35.35249        31.70048        -1.16731
C         34.18602        30.91026        -1.40870
C         35.32818        33.09146        -1.42081
C         34.12944        33.75096        -1.83821
C         35.44471        35.95251        -2.19898
C         34.13292        35.19008        -2.16678
C         35.32459        37.44089        -1.95473
C         34.02493        38.18129        -2.17529
C         35.27363        40.26795        -1.55445
C         34.04795        39.54811        -1.53840
C         35.27051        41.66569        -1.20986
C         34.15082        42.25251        -0.59817
C         35.39472        44.35548        -0.16995
C         34.24871        43.57417        -0.00728
C         35.48958        45.68699         0.37098
C         34.36404        46.30024         0.95403
C         35.58633        48.39786         1.19392
C         34.53991        47.53863         1.61694
C         35.43213        49.85789         1.08854
C         34.18997        50.55173         1.51202
C         35.47369        52.67036         1.84318
C         34.24918        51.88658         1.91661
C         35.46903        54.04590         2.18518
C         34.22327        54.67046         2.56133
C         37.66260        16.46769         2.60118
C         36.44921        17.18052         2.42072
C         37.58053        19.33345         2.87240
C         36.38652        18.56626         2.44254
C         37.57503        20.83556         2.69595
C         36.33503        21.51216         2.17448
C         37.26053        23.86411         2.39015
C         36.28280        22.93761         1.93424
C         37.38354        25.17474         1.86898
C         36.38847        25.66056         0.97697
C         37.68659        27.73828         0.65261
C         36.48883        26.99077         0.48005
C         37.73590        29.09242         0.19347
C         36.55534        29.70070        -0.36465
C         37.77074        31.83768        -0.49194
C         36.56043        31.08584        -0.65758
C         37.78410        33.23628        -0.75191
C         36.49649        33.89937        -1.02427
C         37.80028        36.07645        -1.36023
C         36.50505        35.36980        -1.29331
C         37.78615        37.44466        -1.70079
C         36.50787        38.15101        -1.85903
C         37.71834        40.31990        -2.16383
C         36.48178        39.58989        -1.84889
C         37.72170        41.81502        -2.01923
C         36.45173        42.47916        -1.55518
C         37.88242        44.47832        -0.75797
C         36.53462        43.88460        -0.99350
C         37.92392        45.73662        -0.07047
C         36.75015        46.38558         0.36342
C         37.96661        48.56447         0.61966
C         36.76763        47.79088         0.69620
C         37.98549        49.94968         0.87425
C         36.70942        50.67276         0.98104
C         37.92986        52.75030         1.53688
C         36.70248        52.05988         1.45756
C         37.93269        54.14738         1.83997
C         36.69657        54.80062         2.14092
C         37.91312        56.90587         2.34745
C         36.72569        56.19412         2.39771
C         40.16934        14.98673         2.99558
C         40.11294        16.35517         2.66800
C         38.86518        17.10684         2.75378
C         40.02420        19.24209         2.14841
C         38.93971        18.59918         3.00536
C         40.06477        20.62715         2.03558
C         38.94444        21.43914         2.50617
C         40.34873        23.49296         2.37180
C         39.17412        22.76294         2.78675
C         40.43010        24.90631         2.38941
C         38.53150        25.99245         2.09307
C         40.12317        27.76015         1.30015
C         38.80654        27.14225         1.34200
C         40.10608        29.21293         1.00602
C         38.92281        29.84803         0.38172
C         40.21569        31.94158        -0.07645
C         38.97509        31.20204        -0.04072
C         40.22985        33.29986        -0.50440
C         38.98702        33.97097        -0.76463
C         40.24155        36.06216        -1.28309
C         39.00276        35.38050        -1.10287
C         40.22506        37.42777        -1.66132
C         39.01829        38.12702        -1.81076
C         40.30745        40.31949        -1.99934
C         39.03034        39.56969        -2.16491
C         40.30813        41.73243        -1.81057
C         39.04985        42.51742        -1.78783
C         40.40791        44.32268        -0.60166
C         39.05760        43.82415        -1.10422
C         40.44692        45.79987        -0.37776
C         39.22314        46.37236         0.18027
C         40.49289        48.58385         0.29781
C         39.24804        47.84761         0.54870
C         40.45875        50.09527         0.36635
C         39.19050        50.68839         0.94412
C         40.40320        52.80868         1.34073
C         39.17525        52.06334         1.27295
C         40.38995        54.19388         1.47971
C         39.15576        54.89117         1.77033
C         40.37111        57.11119         1.92339
C         39.13617        56.28203         2.03611
C         40.50108        58.35810         2.68677
C         42.48015        14.89919         2.28426
C         41.34931        14.27132         2.80153
C         42.46565        16.27136         1.94941
C         41.26176        16.99568         2.14764
C         42.48303        19.12379         1.38900
C         41.15006        18.40699         1.71952
C         42.47383        20.57415         1.49152
C         41.31377        21.30372         1.70124
C         42.57778        23.46637         1.43481
C         41.41608        22.75755         1.80234
C         42.61161        24.87958         1.40028
C         41.44557        25.63787         1.73647
C         42.59259        27.73365         1.03288
C         41.35444        27.07334         1.44039
C         42.64832        29.12084         0.79148
C         41.44143        29.95517         0.87803
C         42.66653        31.97269         0.08415
C         41.45255        31.30369         0.25148
C         42.70116        33.31368        -0.39627
C         41.47456        33.99858        -0.66565
C         42.72979        36.05519        -1.27753
C         41.49317        35.36448        -1.09236
C         42.75080        37.42805        -1.67408
C         41.48260        38.07991        -2.16913
C         42.76575        40.26626        -2.24811
C         41.48792        39.58025        -2.02417
C         42.77245        41.77690        -2.15710
C         41.53298        42.46805        -1.76201
C         42.77588        44.68498        -1.68322
C         41.57033        43.80988        -1.40556
C         42.89066        45.85005        -0.69432
C         41.65662        46.49962        -0.33954
C         42.94632        48.70519        -0.14707
C         41.65621        47.92100         0.00404
C         42.97938        49.90215         0.79921
C         41.69404        50.60211         1.08033
C         43.00170        52.76589         1.46878
C         41.68683        52.05370         1.44758
C         42.97250        54.24247         1.23746
C         41.64749        54.95772         1.24323
C         42.94908        57.10064         1.81397
C         41.66745        56.44003         1.48370
C         42.92101        58.37292         2.33517
C         41.70576        58.98406         2.78669
C         44.90772        16.23869         1.33833
C         43.70111        16.94885         1.54258
C         44.99750        19.03051         1.43069
C         43.75373        18.36624         1.47958
C         45.04194        20.50177         1.58806
C         43.76952        21.27642         1.57436
C         45.07116        23.41982         1.48475
C         43.80567        22.69068         1.03122
C         45.07753        24.82614         0.94187
C         43.82944        25.57163         1.02149
C         45.00222        27.58323         0.18245
C         43.79552        26.94781         0.83279
C         45.06153        29.07836         0.34853
C         43.89316        29.79446         0.48309
C         45.18924        31.90979        -0.01440
C         43.93328        31.31390         0.58807
C         45.19164        33.29855        -0.43480
C         43.95399        33.99445        -0.59130
C         45.20780        35.99549        -1.28426
C         43.96841        35.35435        -1.02640
C         45.20541        37.35980        -1.81549
C         43.95823        38.13499        -1.81223
C         45.24867        40.26936        -1.99774
C         44.03046        39.53809        -2.05147
C         45.25586        41.72149        -1.96607
C         44.05239        42.46013        -1.92025
C         45.26211        44.53596        -2.09811
C         44.04485        43.87144        -1.86632
C         45.43250        45.76962        -0.04188
C         44.12035        46.48730        -0.27921
C         45.45348        48.45358         0.57150
C         44.16645        47.83361         0.03689
C         45.44540        49.97221         0.58012
C         44.25915        50.65446         0.84345
C         45.45424        52.78214         1.07267
C         44.26482        52.06075         1.10973
C         45.50456        54.19833         1.62065
C         44.21974        54.98139         1.46959
C         45.45130        57.06629         1.59066
C         44.21495        56.37329         1.63030
C         46.10801        16.89324         1.12391
C         47.47103        18.99346         1.08762
C         46.20548        18.30696         1.21620
C         47.57077        20.44289         1.50231
C         46.30041        21.23248         1.30315
C         47.55650        23.31137         0.96870
C         46.31545        22.59784         1.19614
C         47.52853        24.68136         0.73373
C         46.29245        25.44205         0.68634
C         47.49441        27.58839         0.46409
C         46.31060        26.88309         0.47115
C         47.52684        29.02418         0.33946
C         46.34426        29.75236         0.24140
C         47.63800        31.76841        -0.54879
C         46.35305        31.17509        -0.01991
C         47.67218        33.26918        -0.52809
C         46.42219        33.96315        -0.67971
C         47.70100        36.03117        -1.18357
C         46.44349        35.33685        -1.07263
C         47.73993        37.40892        -1.45776
C         46.52624        38.12289        -1.87309
C         47.70127        40.28477        -1.60789
C         46.49345        39.59111        -1.82206
C         47.72097        41.72716        -1.67892
C         46.49184        42.43272        -1.83809
C         47.72524        44.57077        -1.63437
C         46.50230        43.86033        -1.86301
C         47.78518        45.93047        -1.12688
C         46.66424        46.52437        -0.49221
C         47.87263        48.63461        -0.22482
C         46.68352        47.87827        -0.11251
C         47.88578        50.02774         0.14365
C         46.67007        50.69490         0.49237
C         47.89734        52.82398         0.67347
C         46.67374        52.11396         0.72627
C         47.93350        54.33461         0.64691
C         46.68767        55.00680         1.15911
C         46.63530        56.38078         1.23577
C         49.89303        18.99429         0.68861
C         48.66089        18.33688         0.76103
C         50.00756        20.40940         0.80428
C         48.80204        21.16203         1.00917
C         50.05167        23.24904         0.76531
C         48.80055        22.55475         0.90200
C         50.08039        24.66309         0.70633
C         48.80189        25.37782         0.47252
C         50.05034        27.59033         0.76761
C         48.79024        26.86781         0.41075
C         50.11214        29.03001         0.49667
C         48.82141        29.73838         0.46859
C         50.15883        31.83005        -0.10091
C         48.85102        31.18605         0.12848
C         50.15406        33.22059        -0.33110
C         48.88906        33.93380        -0.50913
C         50.13610        36.03953        -0.74580
C         48.93584        35.35908        -0.78868
C         50.24336        37.38514        -1.41464
C         48.94843        38.15651        -1.37401
C         50.17875        40.28739        -1.19931
C         48.92329        39.54724        -1.43169
C         50.21178        41.77455        -1.42101
C         48.93598        42.45643        -1.72191
C         50.15760        44.64295        -2.15842
C         48.93756        43.85698        -1.74965
C         50.25755        46.00298        -1.49926
C         49.04770        46.63540        -1.10848
C         50.31240        48.71083        -0.64346
C         49.07923        47.99536        -0.65275
C         50.33079        50.08862        -0.23425
C         49.11130        50.73926         0.12956
C         50.36022        52.83048         0.58722
C         49.11508        52.13814         0.45795
C         50.34502        54.15865         1.17206
C         49.19561        54.85715         1.28881
C         52.50254        20.42163         0.40247
C         51.25270        21.09327         0.68919
C         52.51354        23.23019         0.77317
C         51.27997        22.52368         0.77641
C         52.53401        24.63542         0.69478
C         51.30118        25.34716         0.68086
C         52.59099        27.54614         0.55139
C         51.33816        26.81880         0.81446
C         52.58822        28.94634         0.40143
C         51.32764        29.68299         0.36592
C         52.59789        31.80696         0.04284
C         51.35872        31.11426         0.09884
C         52.58415        33.22003        -0.06152
C         51.38248        33.91638        -0.24932
C         52.66026        36.08005        -0.46122
C         51.35186        35.41764        -0.10743
C         52.66885        37.49020        -0.74839
C         51.46760        38.17587        -1.04256
C         52.66103        40.32459        -1.07619
C         51.46108        39.56707        -1.17266
C         52.67935        41.75510        -1.39005
C         51.50474        42.42558        -1.70325
C         52.77334        44.59653        -2.16344
C         51.47577        43.84268        -2.16143
C         52.74475        46.05443        -1.82167
C         51.49883        46.69690        -1.47678
C         52.75007        48.80604        -1.05262
C         51.52180        48.06957        -1.04575
C         52.77057        50.19417        -0.63915
C         51.55336        50.81809        -0.22284
C         52.81131        52.87841         0.26871
C         51.56705        52.18219         0.23081
C         53.69365        21.06537         0.47271
C         55.02400        23.21746         0.63120
C         53.78305        22.46299         1.03613
C         54.99762        24.62093         0.42338
C         53.77987        25.36351         0.55649
C         55.03411        27.48258         0.27012
C         53.79716        26.78582         0.44606
C         55.05228        28.90615         0.19125
C         53.83287        29.64541         0.22778
C         55.07318        31.77898        -0.02109
C         53.85439        31.08055         0.11072
C         55.10364        33.22385        -0.03460
C         53.83809        33.98794         0.28743
C         55.09694        36.09813        -0.30921
C         53.84285        35.40011        -0.25500
C         55.11513        37.51889        -0.40054
C         53.87876        38.22948        -0.62499
C         55.07686        40.41594        -0.53063
C         53.85514        39.63619        -0.78773
C         55.13012        41.79716        -1.04877
C         53.98159        42.41961        -1.45984
C         55.18657        44.61907        -1.38906
C         54.09706        43.80854        -2.06543
C         55.24452        46.04481        -1.84334
C         53.94550        46.77788        -1.75972
C         55.18257        48.96231        -1.58269
C         53.94486        48.16753        -1.44898
C         55.22095        50.33343        -1.06066
C         53.98537        50.93038        -0.61282
C         53.97181        52.27494        -0.13954
C         57.44781        23.15996         0.34780
C         56.28010        22.54318         0.68739
C         57.44805        24.54420        -0.24039
C         56.21712        25.32472         0.15717
C         57.51698        27.42451         0.10394
C         56.24749        26.72282         0.15278
C         57.50439        28.85606        -0.01019
C         56.31289        29.59235         0.01283
C         57.51601        31.74444        -0.26028
C         56.32578        31.04659        -0.11101
C         57.54884        33.21381        -0.58597
C         56.27932        33.92720        -0.21595
C         57.55114        36.07057        -0.15106
C         56.31489        35.37401        -0.21295
C         57.56378        37.49582        -0.14898
C         56.34693        38.20350        -0.28487
C         57.64712        40.38839        -0.34439
C         56.35588        39.67600        -0.24313
C         57.67085        41.75733        -0.58465
C         56.49441        42.43084        -1.26506
C         57.72080        44.66226        -0.91125
C         56.44161        43.92425        -0.99668
C         57.75171        46.05706        -1.14948
C         56.56470        46.74511        -1.74439
C         57.76244        48.96563        -1.37269
C         56.55030        48.24241        -1.75362
C         57.68250        50.33575        -1.17180
C         56.44448        50.99953        -1.02103
C         59.94702        24.62559        -0.13231
C         58.74557        25.29190        -0.00034
C         60.00338        27.42409         0.57229
C         58.72502        26.71289         0.17383
C         60.04990        28.86311         0.09345
C         58.79309        29.51678        -0.28697
C         60.05344        31.75978        -0.12375
C         58.79828        31.04560        -0.40999
C         60.01073        33.21296         0.04770
C         58.80493        33.92456        -0.11210
C         59.99720        36.05143         0.25933
C         58.79265        35.33948         0.00060
C         60.00491        37.50558         0.25713
C         58.80805        38.21987         0.02408
C         60.06216        40.36149         0.08635
C         58.84055        39.65263        -0.05784
C         60.07075        41.80446        -0.03373
C         58.88249        42.49819        -0.41417
C         60.11126        44.63895        -0.31779
C         58.90774        43.93476        -0.56076
C         60.13901        46.14877        -0.31216
C         58.92875        46.79545        -0.94394
C         60.24464        48.82997        -1.27384
C         58.99769        48.21170        -1.18737
C         61.19680        25.32881        -0.07524
C         61.24526        26.64929         0.21918
C         61.20345        29.59873         0.12343
C         61.21007        31.02446         0.00458
C         61.18471        33.93079         0.38435
C         61.18106        35.30929         0.47309
C         61.21003        38.23913         0.43510
C         61.24044        39.61490         0.35131
C         61.24699        42.55237         0.20764
C         61.25791        43.93464         0.08039
C         61.41990        46.74884        -0.84058
C         61.44549        48.05386        -1.22128
O         32.43061        51.73499         3.56302
O         26.62726        34.52942        -2.90416
O         42.73562        41.11886        -3.46379
O         39.37470        46.81532         1.58928
O         40.69881        29.95730         2.13408
O         55.84210        48.81083        -2.88202
O         45.50664        44.77369         0.66212
O         39.43960        25.61390         3.08704
O         55.42978        44.35275         0.01257
O         42.26743        49.69947         2.06070
O         36.09838        34.92507         0.02323
O         44.42422        21.00471         2.86810
O         48.69245        30.80004         1.52344
O         52.15983        44.16424        -3.43744
O         35.87642        50.39698        -0.20528
O         26.04914        24.60587        -0.14780
O         48.87621        26.09294        -0.84063
O         55.54680        40.25234         0.86129
O         31.34006        26.70719        -2.71627
O         33.41289        48.49003        -0.64853
O         45.93721        37.52712        -3.08180
O         29.71183        43.53759         2.10139
O         33.27138        44.62073         2.15275
O         37.34701        20.21371         4.02483
O         42.29538        54.59499        -0.03142
O         33.38400        35.53135        -3.38975
O         50.11722        41.21470        -0.04892
O         38.14382        23.49244         3.39936
O         41.58563        18.61974         0.34016
O         58.84466        30.17783        -1.60104
O         40.85050        57.19576         0.53509
O         24.26813        29.99950         0.20758
O         38.33968        39.86285        -3.42240
O         36.13737        43.64790        -2.38106
O         38.35993        42.51481        -3.10330
O         29.80913        50.60925        -0.06607
O         56.09156        46.18853        -3.02396
O         50.63124        27.22935         2.06446
O         42.37233        52.34451         2.71969
O         29.78821        25.16859         0.14225
O         60.09843        46.52395         1.12243
H         60.14366        47.50361         1.16018
O         49.82550        44.96434        -3.54974
H         50.68152        45.05540        -4.03305
O         40.54566        50.62133        -0.98999
H         39.70847        50.41984        -1.45805
O         31.96300        42.50218         2.11281
H         32.15675        43.15041         2.82635
O         40.56270        43.70760         0.74127
H         40.27630        44.36678         1.41089
O         43.98506        31.62411         2.01922
H         44.79722        31.21400         2.38531
O         35.99088        35.76933        -3.53723
H         35.25965        35.93712        -4.17268
O         45.02256        23.59167         2.92641
H         44.89543        22.69088         3.31997
O         57.60610        33.25989        -2.06229
H         58.25335        32.58128        -2.35436
O         26.76204        37.92779         0.88045
H         26.78339        37.00277         1.20233
O         33.91150        38.38494        -3.63654
H         33.71946        37.49844        -4.02271
O         41.48343        37.82701        -3.62076
H         40.74166        38.33692        -4.01331
O         53.87965        22.30448         2.50482
H         53.06438        21.84435         2.79835
O         25.50505        48.10588         3.30413
H         26.33047        48.48462         3.67239
O         53.79152        34.14270         1.74603
H         52.99484        34.69219         1.94314
O         54.58868        43.63677        -3.42455
H         53.79754        43.52605        -4.00506
O         22.69278        42.07974        -1.78962
H         22.63264        43.05538        -1.70449
O         57.36665        24.36995        -1.70478
H         56.51915        23.91493        -1.89618
O         44.78456        27.35613        -1.27130
H         45.62346        27.57994        -1.72932
O         56.80304        42.26276        -2.68118
H         56.10710        42.74037        -3.20503
O         48.01845        54.70746        -0.77717
H         48.83921        54.30601        -1.13452
O         33.70303        47.91732         2.61794
H         33.11582        47.17092         2.85991
O         42.54258        45.38385        -2.99023
H         42.26782        44.70295        -3.64402
O         24.34258        26.63191        -3.44841
H         23.50544        26.26128        -3.80301
O         33.33814        23.12350         2.65192
H         32.35569        22.98525         2.60830
O         59.97211        27.51505         2.04546
H         59.95837        26.59764         2.39217
O         45.70126        54.00688         3.08096
H         45.73599        54.89892         3.48822
O         45.54620        48.06574         1.97949
H         45.50126        47.08642         2.03093
O         51.22847        35.64892         1.35392
H         50.37446        35.26012         1.64280
O         47.75025        31.36264        -1.95370
H         47.03554        31.81122        -2.45326
O         24.08391        48.20526        -0.06106
H         23.23727        47.85604        -0.41116
O         43.86394        22.59238        -0.41453
H         43.00609        22.24586        -0.73737
O         45.24556        45.79123        -2.60761
H         44.31294        46.00023        -2.87204
O         39.39162        18.73773         4.37787
H         38.84325        19.45635         4.77991
O         50.44871        37.07440        -2.84920
H         49.64030        36.61822        -3.16912
O         26.68185        39.35868        -2.47578
H         26.58014        40.28124        -2.79007
O         30.85927        22.90663         1.57066
H         30.39109        23.76707         1.42778
O         47.73445        20.38831         2.97486
H         47.72241        21.31180         3.30657
O         43.01212        49.25876        -1.49309
H         42.87664        48.52519        -2.12884
O         33.19627        31.35554        -3.52137
H         32.51813        31.88663        -3.99131
H         23.01775        23.25554        -1.68971
H         20.87747        24.50064        -1.92588
H         20.80343        26.93832        -1.67088
H         20.80148        28.84125        -1.23791
H         20.79097        31.23928        -1.16905
H         20.77811        33.16681        -1.38731
H         20.78054        35.58887        -1.30629
H         20.80039        37.49660        -1.21506
H         20.83191        39.90756        -0.82042
H         20.92532        41.41506         0.55786
H         21.00079        43.65317         1.52860
H         20.90045        45.59199         1.63367
H         23.01694        49.23955         2.47219
H         20.95620        47.88206         2.55526
H         24.85731        22.27483        -2.20752
H         24.57033        50.37350         1.68105
H         27.00701        21.16689        -1.90988
H         26.66496        51.59390         1.39053
H         30.64648        19.23071        -0.11934
H         28.62384        20.25855        -0.98544
H         30.36833        53.43028         2.96037
H         28.30014        52.49499         2.12108
H         32.09044        18.46879         0.84235
H         32.16340        54.46429         3.06951
H         34.03254        17.44058         1.82739
H         34.20313        55.74819         2.76961
H         37.63611        15.37624         2.47197
H         35.56986        16.58250         2.15401
H         37.88735        57.98847         2.53090
H         35.80060        56.73972         2.62275
H         39.28904        14.48431         3.41876
H         39.62153        58.77941         3.19303
H         43.39612        14.30789         2.15745
H         41.39223        13.20542         3.06480
H         43.85984        58.90212         2.54904
H         41.77886        59.94107         3.32260
H         44.90559        15.14071         1.32715
H         45.47686        58.16077         1.66679
H         47.00882        16.29134         0.94535
H         47.52270        56.97498         0.97289
H         50.78882        18.39477         0.47784
H         48.64896        17.25771         0.55103
H         51.27888        54.58051         1.56975
H         49.19528        55.85300         1.75503
H         52.47915        19.37013         0.08094
H         52.84473        53.92215         0.60691
H         54.61924        20.52569         0.22451
H         54.90390        52.85296        -0.10782
H         58.39121        22.59933         0.40791
H         56.30387        21.50466         1.04832
H         58.59733        50.91120        -0.97158
H         56.48340        52.05899        -0.73568
H         59.96844        23.54973        -0.35004
H         60.31584        49.89970        -1.51096
H         62.12273        24.77189        -0.27932
H         62.21805        27.15611         0.28476
H         62.15820        29.11993         0.38119
H         62.17359        31.52844         0.15904
H         62.12766        33.39549         0.55511
H         62.12372        35.81997         0.70808
H         62.15209        37.70966         0.62809
H         62.20358        40.12673         0.47770
H         62.16811        42.04747         0.52682
H         62.17964        44.48171         0.32064
H         62.35317        46.17076        -0.79158
H         62.39321        48.52972        -1.51221
