         576
 CSIRO Nanostructure Databank - Neutral Graphene Oxide Data Set
C          5.96407        18.91984        -0.36239
C          5.92082        20.34717        -0.16900
C          4.68388        21.09316        -0.35685
C          5.81808        23.24852         0.00597
C          4.64520        22.45458        -0.29802
C          5.84031        24.61100        -0.16965
C          8.45768        14.65870        -0.57038
C          8.39627        16.07282        -0.58215
C          7.19078        16.77129        -0.49246
C          8.42200        18.90936        -0.19346
C          7.15445        18.19347        -0.35818
C          8.33294        20.29711         0.33268
C          7.06244        21.03220         0.21670
C          8.30566        23.21623         0.20729
C          7.00748        22.50640         0.58092
C          8.31887        24.69672         0.01193
C          7.03065        25.43585         0.02175
C          8.24997        27.57815         0.55098
C          7.02564        26.79667         0.11180
C          8.34093        29.03714         0.11562
C         11.00567        10.40946        -0.51321
C         10.95724        11.81013        -0.39240
C          9.72841        12.53622        -0.54543
C         10.99363        14.67777        -0.51498
C          9.66887        13.93286        -0.52628
C         10.83336        16.12996        -0.09970
C          9.68211        16.84459        -0.81820
C         10.95692        19.02763        -0.49063
C          9.62225        18.29794        -0.40519
C         10.84635        20.56422        -0.21674
C          9.61068        21.03575         0.54684
C         10.82976        23.30521         0.69267
C          9.55043        22.53569         0.68811
C         10.80675        24.72774         0.33599
C          9.58377        25.45374         0.21330
C         10.79540        27.61459         0.64394
C          9.54669        26.83437         0.32560
C         10.84148        29.00244        -0.00439
C          9.51944        29.73252         0.06629
C         10.81131        31.85881         0.03738
C          9.61665        31.16748        -0.10446
C         10.89452        33.26514        -0.26196
C         13.48606         6.14664        -0.50647
C         13.43055         7.57559        -0.31113
C         12.24687         8.28584        -0.46925
C         13.39616        10.39411         0.11276
C         12.20612         9.69922        -0.29073
C         13.34458        11.81814         0.31329
C         12.14975        12.49522         0.01667
C         13.29146        14.67788         0.69637
C         12.03903        13.93185         0.28826
C         13.32737        16.14495         0.58524
C         12.03995        16.87288         0.41511
C         13.27332        19.00309         0.47221
C         12.10068        18.33875         0.23702
C         13.32191        20.45597         0.43171
C         12.11119        21.17444         0.35793
C         13.32732        23.25746         0.63226
C         12.10871        22.55867         0.59343
C         13.27905        24.73525         0.88820
C         12.08822        25.39340         0.22452
C         13.29892        27.58991         0.77876
C         12.09335        26.91801         0.31054
C         13.18786        29.03323         1.05310
C         12.01283        29.77958         0.57380
C         13.24869        31.91176         0.68362
C         12.03688        31.16484         0.47442
C         13.19989        33.42181         0.69815
C         12.04400        34.00766        -0.07753
C         13.33396        36.08902        -0.42081
C         12.14330        35.37358        -0.48871
C         13.41567        37.46420        -0.84373
C         15.89544         6.14867        -0.09716
C         14.66020         5.46432        -0.39929
C         15.85904         7.56680         0.13485
C         14.64115         8.27491         0.03608
C         15.82293        10.35421         0.67109
C         14.61575         9.68344         0.26796
C         15.76671        11.79166         1.14172
C         14.53883        12.54274         0.67925
C         15.79740        14.67155         0.77492
C         14.55655        13.93145         0.74057
C         15.79566        16.08981         0.77872
C         14.52470        16.80319         0.71911
C         15.80922        19.01846         0.93874
C         14.50296        18.27745         0.88364
C         15.81989        20.46780         0.64006
C         14.55267        21.15778         0.52159
C         15.78080        23.32515         0.14805
C         14.53533        22.57180         0.49682
C         15.76291        24.77768         0.57010
C         14.57500        25.46973         0.67066
C         15.76099        27.63978         0.82790
C         14.53549        26.91536         0.79866
C         15.76420        29.07281         0.93268
C         14.51016        29.81393         1.17440
C         15.71768        31.97166         0.87314
C         14.48178        31.26575         0.89614
C         15.73582        33.39917         0.66017
C         14.52391        34.08167         0.38378
C         15.80795        36.12737        -0.06196
C         14.56344        35.42886        -0.00815
C         15.84317        37.50118        -0.48170
C         14.60350        38.13643        -0.86816
C         18.33181         6.16240         0.20605
C         17.10595         5.46669        -0.02578
C         18.29379         7.58411         0.38195
C         17.07369         8.27135         0.42689
C         18.21247        10.39462         1.40931
C         17.02621         9.67551         0.75631
C         18.29105        11.83292         0.89087
C         17.06443        12.52806         0.84947
C         18.26090        14.66302         0.63170
C         17.03546        13.94455         0.73007
C         18.25314        16.07875         0.71296
C         17.04293        16.80429         0.79244
C         18.26712        18.97176         0.80739
C         17.08841        18.26442         0.83665
C         18.30181        20.46716         1.04948
C         17.01944        21.16577         0.64271
C         18.24275        23.29651         0.50128
C         17.04372        22.58615         0.49475
C         18.21934        24.73789         0.50757
C         17.02263        25.47020         0.60072
C         18.16880        27.63835         0.42049
C         17.00065        26.92289         0.66429
C         18.14034        29.09583         0.31184
C         16.93159        29.80384         0.74048
C         18.18175        31.94178         0.90331
C         16.97342        31.25083         0.86397
C         18.15218        33.41463         1.27150
C         16.96081        34.10966         0.67166
C         18.26880        36.20810         0.34121
C         17.01419        35.47785         0.33888
C         18.28290        37.55211        -0.13900
C         17.05875        38.17922        -0.52576
C         20.77845         6.12602         0.61328
C         19.54837         5.45887         0.28899
C         20.76496         7.54642         0.69961
C         19.56201         8.38495         0.37440
C         20.82726        10.43844         1.22902
C         19.54890         9.56034         1.39013
C         20.79967        11.84935         0.73542
C         19.50695        12.52835         0.66948
C         20.70793        14.65557         0.23418
C         19.49826        13.94588         0.50315
C         20.77256        16.05295         0.35101
C         19.55822        16.75994         0.81622
C         20.80296        18.97623         0.45801
C         19.56948        18.27765         0.86321
C         20.76235        20.42039         0.30208
C         19.53624        21.15663         0.50175
C         20.69065        23.29704         0.12627
C         19.50841        22.56705         0.41442
C         20.74022        24.72035         0.14596
C         19.50338        25.45119         0.52834
C         20.65647        27.67944        -0.08758
C         19.46355        26.95729         0.44347
C         20.71722        29.13514         0.12793
C         19.43576        29.84931         0.25163
C         20.58536        32.01797         0.10468
C         19.51313        31.21971         0.88124
C         20.72544        33.41028         0.67575
C         19.48068        34.14592         1.06859
C         20.71615        36.29449         0.62170
C         19.49242        35.60571         0.74919
C         20.73148        37.60377         0.05574
C         19.52206        38.22522        -0.27293
C         23.20488         6.01303         1.40495
C         21.97659         5.40186         0.77460
C         23.29193         7.50828         1.09634
C         22.07092         8.24574         0.59515
C         23.32002        10.37652         0.48731
C         22.11345         9.69909         1.01587
C         23.32672        11.87926         0.56952
C         21.95352        12.48774         0.34698
C         23.19141        14.63328        -0.27286
C         21.88354        13.87046        -0.27841
C         23.20038        16.06975        -0.21810
C         21.97526        16.78754         0.13877
C         23.25664        18.95166         0.16571
C         21.96905        18.22254         0.23240
C         23.22788        20.44803        -0.06748
C         21.91595        21.10699        -0.11234
C         23.17527        23.30526        -0.48639
C         21.87943        22.55904        -0.31363
C         23.26793        24.74231         0.00446
C         21.92438        25.42750        -0.03763
C         23.20927        27.63021        -0.21058
C         21.91891        26.88163        -0.25364
C         23.19071        29.12097        -0.15179
C         21.89912        29.85354        -0.02339
C         23.11316        32.00762        -0.14598
C         21.91124        31.27619         0.00601
C         23.16851        33.39179         0.09534
C         21.91173        34.22493         0.17594
C         23.29856        36.31867         0.63184
C         22.01817        35.55381         0.97829
C         23.18723        37.69780         0.04122
C         21.99390        38.33309        -0.07812
C         25.69239         5.84773         0.56111
C         24.50317         5.27697         1.14628
C         25.69254         7.41144         0.18636
C         24.52090         8.21538         0.64158
C         25.60602        10.29037        -0.45039
C         24.43428         9.65213         0.20078
C         25.61915        11.78030        -0.54228
C         24.44934        12.50466        -0.22555
C         25.55776        14.56815        -1.05877
C         24.38158        13.90318        -0.46830
C         25.55339        16.09987        -1.04960
C         24.41211        16.76214        -0.41532
C         25.72106        18.94712        -0.69866
C         24.52485        18.20566        -0.14838
C         25.57811        20.36719        -1.21411
C         24.43630        21.15658        -0.58101
C         25.60047        23.28194        -1.11075
C         24.43123        22.51373        -0.61354
C         25.64513        24.75131        -0.82360
C         24.38455        25.52307        -0.67883
C         25.61502        27.68236        -0.92598
C         24.41320        26.90066        -0.69732
C         25.61571        29.06605        -0.78533
C         24.29321        29.81307        -0.94145
C         25.59538        31.81651         0.08076
C         24.37990        31.36227        -0.72914
C         25.63263        33.32688         0.02738
C         24.43218        34.08800         0.06450
C         25.71869        36.19701         0.07294
C         24.47871        35.50874         0.16164
C         25.75174        37.65497         0.37130
C         24.39483        38.11353         0.86084
C         28.20845         5.86186         0.09563
C         27.03651         5.38465         0.82758
C         28.15629         7.32439        -0.38815
C         27.00992         8.15634         0.15163
C         28.15796        10.21283        -0.80254
C         26.87372         9.49259        -0.60422
C         28.06648        11.66791        -1.13619
C         26.81852        12.44047        -0.93002
C         28.06414        14.59169        -1.22489
C         26.86007        13.85771        -1.10019
C         28.08309        16.04498        -1.64135
C         26.83473        16.81974        -1.27117
C         28.09090        18.93013        -1.73919
C         26.85876        18.17655        -1.26246
C         28.10262        20.41386        -1.35814
C         26.91650        21.08631        -1.21577
C         28.17389        23.29947        -1.54080
C         26.87085        22.55347        -1.41821
C         28.17194        24.78604        -1.44527
C         26.90548        25.48964        -1.05692
C         28.11071        27.60550        -0.68310
C         26.88607        26.97313        -1.35733
C         28.12941        29.09110        -0.95914
C         26.85152        29.82129        -0.72444
C         28.13333        31.90385        -0.27891
C         26.88266        31.16589        -0.40100
C         28.11970        33.25216         0.05462
C         26.86708        33.98854         0.02631
C         28.17171        36.05416        -0.02555
C         26.87300        35.39792        -0.06947
C         28.21154        38.24788         0.15021
C         26.81008        38.53457         0.48440
C         30.72113         6.02778         0.21790
C         29.55222         5.34177         0.42890
C         30.74718         7.33907        -0.48095
C         29.42351         8.05342        -0.70354
C         30.61992        10.29274        -0.61500
C         29.34958         9.53935        -0.77874
C         30.59093        11.77996        -0.72239
C         29.34824        12.45927        -1.18484
C         30.53451        14.61780        -0.95155
C         29.32597        13.93445        -1.10203
C         30.51690        16.08381        -0.61470
C         29.32303        16.81698        -1.20929
C         30.55004        18.95822        -0.99338
C         29.32974        18.17001        -1.30490
C         30.62089        20.38714        -1.43387
C         29.36614        21.15012        -1.40163
C         30.66287        23.25636        -1.11902
C         29.43233        22.53792        -1.34943
C         30.57079        24.67040        -0.56855
C         29.42075        25.50843        -1.08572
C         30.69344        27.57219        -0.73352
C         29.41404        26.86078        -0.96058
C         30.71002        29.05101        -0.58107
C         29.42114        29.79982        -0.76618
C         30.62858        31.88012        -0.31562
C         29.41702        31.22124        -0.40632
C         30.53994        33.38638        -0.47079
C         29.44965        33.90494         0.46467
C         30.66540        36.22271         0.23698
C         29.42675        35.41710         0.39788
C         30.69029        37.68764         0.73473
C         29.39449        38.54974         0.75312
C         33.14338         6.25908         0.73619
C         31.98858         5.53035         0.72693
C         33.22732         7.61151         0.22865
C         32.03320         8.13058        -0.46671
C         33.13255        10.44296        -0.29496
C         31.95885         9.62532        -0.65273
C         33.06836        11.84655        -0.51655
C         31.85465        12.52241        -0.82044
C         33.03398        14.64650        -0.91624
C         31.79804        13.92578        -0.90434
C         33.05781        16.09978        -0.89559
C         31.84662        16.77519        -0.84520
C         33.16381        18.92428        -1.05329
C         31.83784        18.24282        -0.75577
C         33.14213        20.41472        -0.82279
C         31.94030        21.14049        -1.28215
C         33.10441        23.27563        -0.66688
C         31.87797        22.58930        -1.02656
C         33.08772        24.65901        -0.44780
C         31.87803        25.41958        -0.48417
C         33.08079        27.57274        -0.02355
C         31.88925        26.80317        -0.34369
C         33.06870        28.92354         0.27531
C         31.76317        29.70460         0.29815
C         33.06382        31.85918         0.10937
C         31.87563        31.18484        -0.05895
C         33.11742        33.33046        -0.14072
C         31.85560        34.11705        -0.33391
C         33.11793        36.27145        -0.06083
C         31.83610        35.56808        -0.01792
C         33.01820        37.72756        -0.19784
C         31.88586        38.38904         0.11875
C         34.33146         8.42177         0.41997
C         35.48268        10.66305         0.39807
C         34.33980         9.83772         0.11471
C         35.45649        12.03469         0.14885
C         34.26768        12.59413        -0.43598
C         35.49211        14.70223        -1.15261
C         34.24348        13.95685        -0.82879
C         35.54925        16.08459        -0.59151
C         34.32388        16.77089        -0.64730
C         35.53164        18.93912        -0.20192
C         34.22744        18.20990        -0.21515
C         35.50382        20.33269        -0.11286
C         34.27940        21.07922        -0.43876
C         35.55032        23.19387        -0.26323
C         34.33794        22.53628        -0.47497
C         35.63789        24.65439        -0.41100
C         34.34405        25.41805        -0.39285
C         35.60751        27.50444         0.26519
C         34.30089        26.75361         0.32341
C         35.63069        28.93261         0.77200
C         34.27639        29.63092         0.78610
C         35.61954        31.95324         0.67683
C         34.26426        31.15496         0.65258
C         35.45554        33.27915         0.01460
C         34.32035        34.12602         0.47491
C         34.28978        35.58011         0.03230
C         36.39005        13.09814         0.55729
C         38.36988        14.58846         0.12189
C         37.69615        13.32743         0.12934
C         38.01777        15.98842         0.14470
C         36.77041        16.67128        -0.14065
C         37.82269        18.81715         0.71177
C         36.84393        18.19375        -0.25231
C         37.74906        20.30463         0.93508
C         36.65293        21.05632         0.31294
C         37.77838        23.17611         0.84945
C         36.70330        22.48364         0.28020
C         37.67770        24.67030         1.07013
C         36.94161        25.35869        -0.08684
C         38.06775        27.57950         0.48400
C         36.78151        26.83248         0.21367
C         37.70975        28.91513         1.15643
C         36.79509        29.77058         0.30284
C         36.80915        31.11961         0.23322
C         39.16825        16.79251         0.47118
C         40.24524        18.90603         1.23596
C         39.13839        18.15837         0.80615
C         40.15851        20.30952         1.51359
C         38.96575        21.00702         1.33935
C         40.13122        23.20127         1.76228
C         38.81708        22.46199         1.68685
C         40.16068        24.56783         1.68277
C         39.00774        25.36680         1.31600
C         39.10208        26.71945         1.18068
C         41.34580        21.06305         1.89383
C         41.32925        22.42160         1.98817
O         24.15585         8.16307         2.07832
O         26.56008        25.11208         0.31934
O         23.96153        29.58609        -2.29719
O         13.73702        29.44199         2.35112
O         22.34899        23.07611        -1.65659
O         19.71399        26.28485         1.73139
O         31.46621        20.65509        -2.60322
O         30.12534         7.39027        -1.79553
O         28.75826        11.94480        -2.41859
O         28.58501        36.08531         1.41518
O         19.74455        17.47444         2.08519
O          9.03690        20.35816         1.68291
O         17.91661        10.53952         2.79121
O         15.05725        18.71393         2.17737
O         23.51668        28.34864         1.04770
O         25.61645        18.67973         0.72682
O         21.08150        27.25372        -1.42437
O         37.25473        19.29789         1.95111
O         23.43835        19.86504         1.28330
O         21.75136        10.16593         2.34541
O         28.29902        37.21536        -0.80116
O         25.18276        15.32242        -2.24824
O         32.75527        33.76922        -1.46791
O         32.26287         8.74584        -1.77486
O         27.89762         6.25234        -1.29445
O         31.15439        28.49170        -1.83769
O         25.94905         9.56918        -1.71135
O         33.99707        30.49775         1.93799
O         30.48267        11.12813         0.60429
O         28.21716        24.14701        -2.75097
O         33.96493        26.51233         1.67698
O         23.92040        37.06259         1.83160
O         28.85416        29.55693        -2.12205
O         25.45136         6.47103        -0.79340
O         36.50769        28.77074         2.03638
O         10.92981        16.42490         1.30399
O         35.09417        25.24902        -1.64715
O         28.24585        16.05451        -3.15967
O         20.42626        33.61417         2.07700
O          8.38933        23.74593        -1.13236
O         12.25648        26.22057        -0.95582
O         25.92294        22.91644        -2.50117
O         31.06478        18.78055         0.38152
O         10.05198        23.02174         1.95690
O         12.26387        14.25088         1.67768
O         10.72370        21.22498        -1.46564
O         36.31606        14.29388        -1.96407
O         18.65712        29.72094        -0.98517
O         30.06706        33.66259        -1.81183
H         30.81160        33.47597        -2.42570
O         22.09386        35.28560         2.38199
H         22.57878        36.03141         2.79943
O         33.74804        18.24361         1.16279
H         34.47784        17.95754         1.75157
O         27.00824        27.09237        -2.78416
H         27.01115        28.04212        -3.02908
O         19.70028         8.97800        -0.97120
H         19.26227         8.37806        -1.61251
O         33.46948        18.71232        -2.44900
H         32.86480        19.29496        -2.97011
O         28.05927        18.94142        -3.18822
H         27.17026        19.25621        -3.46568
O          6.90554        22.56614         2.03184
H          7.61813        21.99804         2.40494
O         34.12974        34.12415         1.88911
H         34.76029        33.47276         2.29375
O         18.40141        20.62008         2.50509
H         17.72596        20.04010         2.91819
O         27.94305        27.51373         0.75456
H         27.55126        26.63639         0.97637
O         15.63058        11.77035         2.59221
H         16.45236        11.30408         2.94046
O         24.52652        31.95407        -2.02801
H         24.27698        31.21290        -2.65892
O         25.20331        20.21560        -2.61928
H         25.23290        21.12468        -3.01171
O         11.12600        28.79521        -1.41197
H         11.00787        29.64943        -1.87739
O         19.96924        30.99036         2.23115
H         20.21255        31.86686         2.61845
O          8.09403        27.67133         2.01358
H          8.94895        28.01759         2.37105
O         37.79371        25.23866        -1.26031
H         37.20578        25.35672        -2.04051
O         20.11916        32.21831        -1.25699
H         19.85538        31.34602        -1.63135
O         10.81399        27.84150         2.08531
H         11.03153        26.99544         2.53396
O         12.92500        33.77899         2.10364
H         13.65200        33.41091         2.65049
O         38.42027        12.25673        -0.30154
H         39.26860        12.55457        -0.68395
O         19.65433         8.87297         2.64406
H         19.06302         9.38977         3.26472
O          9.91396        16.77408        -2.25740
H         10.47988        17.56720        -2.48053
O         27.37481         8.49061         1.51301
H         26.60710         8.90007         1.96832
O         21.58950        13.64265        -1.71098
H         22.42985        13.39649        -2.15464
O         12.96400        24.89987         2.31598
H         13.61336        24.38176         2.83770
O         11.37193        18.91558        -1.88782
H         11.21919        19.85845        -2.23569
O         30.98952        37.55075         2.15513
H         30.24165        37.04653         2.54603
O         36.85764        24.82099         2.25128
H         37.26385        24.27037         2.96135
O         23.64834        12.15691         1.97500
H         23.01038        11.62456         2.51519
O         35.91014        32.18322         2.08873
H         35.64908        31.35917         2.56734
O         23.66009        24.62604         1.40432
H         23.86182        25.52184         1.75040
O         27.36272        15.08026        -3.73476
H         27.92592        14.27127        -3.81902
O         30.17180        24.43179         0.83689
H         30.43826        25.21251         1.36996
O         21.63223        34.62004        -1.19256
H         21.35991        33.81382        -1.68996
O         29.75574        33.50028         1.81166
H         29.23528        34.07251         2.41591
O         25.38764        31.40360         1.45602
H         26.19166        31.61812         1.97324
O         31.24804        29.64522         1.65462
H         31.97845        29.92519         2.25324
O         38.67879        27.92753        -0.79109
H         38.75856        27.08103        -1.29090
O         11.50920        14.67167        -1.87326
H         10.92967        15.28913        -2.39435
O         37.40379        18.45767        -1.58393
H         36.82421        18.02224        -2.24554
O         15.77228        23.37865        -1.32928
H         16.57755        23.86108        -1.61446
O         22.28722         8.28242        -0.86655
H         21.46430         8.66312        -1.26911
O         22.96468         5.92991         2.84321
H         23.43706         6.68134         3.26695
O         38.25916        22.50099         3.06662
H         37.62983        21.75110         3.15126
O         30.32201        16.14884         0.84186
H         30.49299        17.08796         1.10515
O         17.88981        33.45740         2.71646
H         18.75327        33.33046         3.17018
H          5.01481        18.39083        -0.53808
H          3.77549        20.52912        -0.61407
H          3.70843        22.98326        -0.53159
H          4.91398        25.11934        -0.48300
H          7.51056        14.09480        -0.54130
H          6.24185        16.21256        -0.46142
H          6.06579        27.33689         0.10267
H          7.39344        29.60034         0.08758
H         10.09769         9.85454        -0.79298
H          8.79728        11.95950        -0.66400
H          8.69817        31.73239        -0.32836
H         10.01100        33.74741        -0.70952
H         12.55399         5.61591        -0.74975
H         11.32532         7.75758        -0.75583
H         11.25133        35.85760        -0.91638
H         12.48952        37.97096        -1.15274
H         14.68937         4.37603        -0.55474
H         14.63670        39.18684        -1.19287
H         17.13153         4.37666        -0.17046
H         17.08598        39.22282        -0.87384
H         19.54986         4.36613         0.16716
H         19.53292        39.24617        -0.68288
H         21.97887         4.32456         0.55354
H         21.94922        39.42423        -0.22114
H         24.69290         4.46085         1.86249
H         24.39301        39.13614         1.30485
H         27.19252         4.78550         1.73588
H         26.58169        39.52696         0.91122
H         29.59242         4.40390         1.00470
H         29.41229        39.32957         1.53069
H         34.04958         5.82188         1.18126
H         31.99033         4.51999         1.16236
H         33.90246        38.27821        -0.55401
H         31.85062        39.48499         0.02570
H         35.22204         7.99487         0.90690
H         36.36679        10.19962         0.85943
H         35.73637        33.35944        -1.04853
H         35.24601        36.12509         0.02710
H         35.88771        13.98243         0.98548
H         39.46301        14.45325         0.01526
H         38.55793        29.42029         1.67245
H         37.78073        31.63832         0.26838
H         40.13054        16.27012         0.59224
H         41.22508        18.41308         1.32383
H         41.12256        25.09158         1.80793
H         40.06915        27.20705         1.39110
H         42.28292        20.51034         2.05265
H         42.26095        22.96574         2.20541
