         268
 CSIRO Nanostructure Databank - Neutral Graphene Oxide Data Set
C        -10.98132         0.54130        -1.27786
C         -9.75697         1.42883        -1.35994
C         -8.48107         0.67018        -0.95647
C         -7.41434         1.40282        -0.15864
C         -6.07723         0.68978        -0.15252
C         -4.88692         1.40084        -0.01556
C         -3.65168         0.74649         0.28322
C         -2.41709         1.55173         0.32732
C         -1.18446         0.92159         0.05730
C         -0.00305         1.68502        -0.09673
C          1.18609         0.99617        -0.70998
C          2.51196         1.70938        -0.65685
C          3.80038         0.89989        -0.60526
C          4.95234         1.35830         0.30253
C          6.29180         0.71166        -0.11414
C          7.47263         1.51967        -0.67260
C          8.78195         0.76689        -0.33652
C          9.83316         1.39818         0.53617
C         10.70154         0.53268         1.35863
C         -9.93945         2.77400        -0.61243
C         -8.65544         3.58804        -0.64551
C         -7.36895         2.84560        -0.60672
C         -6.08893         3.59473        -0.47666
C         -4.96234         2.87118         0.18028
C         -3.77086         3.61727         0.67767
C         -2.45145         2.96408         0.49028
C         -1.26702         3.72723         0.40038
C         -0.04081         3.07969         0.10000
C          1.21444         3.93112        -0.03400
C          2.52793         3.11721        -0.16020
C          3.67944         3.51244         0.77179
C          5.01829         2.86577         0.44077
C          6.20828         3.53720         0.49862
C          7.43148         3.05506        -0.29444
C          8.69096         3.58918         0.39073
C          9.69044         2.82451         0.89751
C         -8.64595         4.94536        -0.62616
C         -7.43286         5.75886        -0.55687
C         -6.06271         5.11096        -0.65141
C         -5.14366         5.85447         0.91213
C         -3.82600         5.09441         0.97072
C         -2.55337         5.86338         1.05691
C         -1.28789         5.25964         0.45068
C         -0.04071         5.82550         1.15999
C          1.24384         5.06593         1.01713
C          2.56060         5.80050         1.14165
C          3.80319         5.03259         0.85537
C          4.99455         5.67687         0.13941
C          6.25797         5.04409         0.71517
C          7.54349         5.71384         0.25328
C          8.72553         5.03568         0.38789
C         -7.50615         7.10680        -0.42786
C         -6.28810         7.92812        -0.20063
C         -5.08562         7.31098         0.49219
C         -3.76746         7.95863         0.28737
C         -2.66327         7.40834         1.16189
C         -1.29677         8.10274         1.02750
C         -0.01662         7.34163         1.26167
C          1.30740         8.06743         1.06938
C          2.59234         7.30282         1.07268
C          3.90062         7.96824         0.68723
C          5.16936         7.12627         0.61384
C          6.29883         7.77974        -0.15106
C          7.47845         7.08173        -0.18880
C         -6.04047         9.10307        -1.04730
C         -4.82373         9.70014        -1.07002
C         -3.68379         9.16027        -0.35457
C         -2.43121        10.00154        -0.37499
C         -1.19426         9.36477         0.23574
C         -0.00669         9.94605        -0.02704
C          1.32102         9.52391         0.54426
C          2.43846         9.70697        -0.45673
C          3.77632         9.26257        -0.14022
C          4.93747         9.67225        -0.95200
C          6.12103         9.01533        -0.87738
C        -10.95277        -0.80271        -1.14211
C         -9.73941        -1.56483        -0.88280
C         -8.46603        -0.81646        -0.82426
C         -7.28420        -1.47378        -0.22086
C         -6.06842        -0.73563        -0.05163
C         -4.84894        -1.40902         0.28202
C         -3.63975        -0.64427         0.46962
C         -2.32339        -1.32187         0.65513
C         -1.02623        -0.52711         0.41990
C          0.12476        -1.31229        -0.22993
C          1.19276        -0.50063        -0.92218
C          2.47870        -1.23031        -1.44913
C          3.77542        -0.53416        -1.02396
C          4.99910        -1.43665        -0.97861
C          6.28873        -0.70734        -0.59462
C          7.55237        -1.41652        -1.08502
C          8.79822        -0.76032        -0.46930
C          9.82724        -1.53924         0.31945
C         10.69462        -0.81109         1.26922
C         -9.76252        -2.89493        -0.56765
C         -8.57447        -3.61937        -0.14123
C         -7.32055        -2.85326        -0.02216
C         -6.10516        -3.52633         0.27747
C         -4.89374        -2.83837         0.40137
C         -3.66294        -3.55842         0.90044
C         -2.34502        -2.82853         0.57949
C         -1.29703        -3.46849        -0.29917
C          0.04264        -2.80066        -0.46017
C          1.15266        -3.57533        -1.16507
C          2.46639        -2.82546        -1.22441
C          3.60158        -3.53570        -0.47829
C          4.82196        -2.71768        -0.15854
C          6.16498        -3.07741         0.38684
C          7.37272        -2.97734        -0.49211
C          8.59046        -3.63716         0.07282
C          9.72939        -3.02474         0.42925
C         -8.65133        -4.94321         0.20907
C         -7.48752        -5.66491         0.85175
C         -6.19628        -5.00516         0.37610
C         -4.94565        -5.76193         0.60387
C         -3.64265        -5.04036         0.58872
C         -2.59487        -5.68733        -0.23045
C         -1.40897        -4.90752        -0.69899
C         -0.17960        -5.73091        -0.61062
C          1.07308        -5.13047        -1.22125
C          2.43744        -5.83648        -0.98641
C          3.53916        -5.05774        -0.25660
C          4.74243        -5.84591         0.21998
C          6.12327        -5.40835         0.77657
C          7.30374        -5.89434        -0.03770
C          8.22842        -4.89782        -0.67786
C         -7.40955        -7.17846         0.63769
C         -6.26266        -7.84877         0.93827
C         -5.11032        -7.02259         1.40184
C         -3.81166        -8.05285        -0.71032
C         -2.85470        -6.90190        -1.11625
C         -0.18577        -8.13970         0.48773
C         -0.46814        -7.09463        -0.52232
C          1.41459        -8.30082        -1.58751
C          2.53608        -7.35367        -1.11882
C          3.77917        -8.15093        -0.71217
C          4.83370        -7.34533         0.04159
C          6.16474        -8.06846         0.03029
C          7.33659        -7.22138        -0.30072
C         -5.98328        -9.28765         0.90811
C         -4.74051        -9.82707         0.75607
C         -3.51235        -9.15044         0.27828
C         -2.30146        -9.76350         0.49767
C         -0.92117        -9.42611         0.07339
C         -0.10293       -10.18791        -0.69618
C          1.27348        -9.63542        -0.89493
C          2.36329       -10.26531        -0.39925
C          3.61482        -9.51841         0.00943
C          4.95340       -10.22453        -0.21017
C          6.10931        -9.53437        -0.27481
O         -1.98070        -2.17045         1.81159
O         -3.27198        -6.43183        -2.36918
H         -4.10499        -6.91008        -2.60302
O          6.34624        -2.72533         1.64909
H          5.48080        -2.62062         2.10625
O         -4.42241        -7.27614         2.37617
O         -1.74309        -3.85274        -1.64914
O          3.74972        -2.77070         0.79168
O          4.16085         0.53818        -1.95875
O         -2.71077        11.23675         0.30617
H         -2.89521        11.03160         1.24629
O          7.12177         3.80864        -1.45766
O          2.07035         7.90995         2.30270
O         -3.15505         7.70835         2.48324
H         -2.41010         7.56794         3.11224
O          2.92167        -6.43559        -2.20861
O         -0.42606        -0.32296         1.82051
O         -6.47284         2.98331        -1.75333
O          6.11597         5.47469         2.11836
O          7.33166        -4.03951        -1.52528
O         -4.74638         3.02680         1.63634
O         -0.67607         8.03639         2.35975
O         -5.24517         5.54838        -1.55371
O          3.65283        -5.46661         1.12517
O         -8.01148        -0.12661        -2.07367
O          6.22925        -5.12812         1.96327
O          1.81225        -3.28480        -2.42831
O          0.49115        -8.00057         1.48500
O         -7.91507         1.33487         1.26460
O         10.01877        -1.20975        -1.12086
O          0.71868         0.39073        -1.96792
O          4.91432         5.49818        -1.26311
H          5.67455         4.89121        -1.52918
O          3.49425         5.43486         2.21783
O          0.83999        -8.08380        -2.64863
O         -3.76280        -3.45825         2.40602
O          0.64032        -2.25995         0.75550
O         -5.95829         5.64619         1.98005
H         -6.44844         6.49293         2.14117
O          4.37008        -8.50462        -1.99476
H          4.18679        -7.77607        -2.63108
O         -5.57857        -5.74916        -0.72121
O          6.57182        -0.38240         0.80900
O          7.32143         1.43700        -2.09513
H          7.23753         2.39232        -2.39085
O         -6.04265         8.13174         1.24844
O          3.21584         3.00891         2.05339
H          3.26385         3.77020         2.69273
O          5.64714         6.89890         2.01091
O         -2.58808        -5.83853         1.21592
O         -7.58831        -5.47065         2.29018
H         -7.53725        -4.50975         2.47946
O         -4.82186        -8.16591        -1.39301
O          2.77271         2.84261        -1.56141
O          9.98037         1.29963        -0.93988
O          0.71601        -5.35435        -2.60138
H          0.76045        -6.32549        -2.81207
O          2.49191        -1.04541        -2.86130
H          1.72553        -1.51189        -3.25911
O          1.11203         4.67481        -1.28685
H          1.54715         4.11297        -1.98008
O         -3.08913         5.24769         2.24413
O         -1.29053         5.76863        -0.90272
H         -0.50784         5.38126        -1.37618
O         -1.56663        -7.56616        -1.26612
O         -4.82844        -4.33501         2.83724
H         -4.34371        -5.13624         3.16855
O          5.43601        -7.84412         1.28433
O         -1.42710         0.29327         2.64679
H         -1.80985        -0.47864         3.13501
O          4.07700         9.22937         1.33863
O          5.15359        -1.93070        -2.31714
H          5.11463        -1.16225        -2.93046
O          0.45595         4.97072         2.22823
O        -10.36780         2.56436         0.73447
H         -9.61482         2.20197         1.25662
O          1.60385        10.40533         1.65565
H          2.28266         9.94577         2.20834
O          4.63320         0.81057         1.60651
H          4.12156         1.49444         2.11003
O          7.68462        -1.47314        -2.46648
H          8.64284        -1.51498        -2.68048
O          3.36443        -9.36806         1.41547
H          4.15052        -8.94080         1.83493
O         -9.61333         1.80206        -2.74904
H         -9.12933         1.06978        -3.19559
O         -7.48120         2.52792         1.96014
H         -6.55933         2.31942         2.26538
H         11.32777        -1.41303         1.93791
H         11.33804         1.02487         2.10966
H         10.52857         3.30020         1.43143
H          9.69063         5.55742         0.29828
H          8.36559         7.51940        -0.67127
H          6.98050         9.38008        -1.45957
H          4.83030        10.56040        -1.59047
H          2.29088        10.35732        -1.33211
H          0.00152        10.86204        -0.63905
H         -2.20114        10.27921        -1.43827
H         -4.66221        10.60108        -1.67906
H         -6.85678         9.46713        -1.68760
H         -8.48264         7.61748        -0.40750
H         -9.60313         5.49127        -0.63677
H        -10.75128         3.34452        -1.12777
H        -11.94861         1.03882        -1.44514
H        -11.89777        -1.36761        -1.16307
H        -10.71875        -3.43969        -0.57943
H         -9.62157        -5.45963         0.14362
H         -8.30830        -7.71253         0.29171
H         -6.82027        -9.97030         1.12610
H         -4.64352       -10.91330         0.92095
H         -2.35309       -10.68723         1.10641
H         -0.38947       -11.16768        -1.10873
H          2.23659       -11.25969         0.05974
H          4.95945       -11.31687        -0.34228
H          7.06246       -10.05608        -0.45134
H          8.15063        -7.66270        -0.89782
H          9.03867        -5.38248        -1.27222
H         10.65060        -3.59281         0.63208
