         640
 CSIRO Nanostructure Databank - Neutral Graphene Oxide Data Set
C         23.03467        27.35176         0.30397
C         23.01714        28.73739         0.18443
C         23.03314        31.65391        -0.27297
C         23.03914        33.06033        -0.33055
C         22.97353        35.98635         0.11509
C         22.98223        37.29755         0.44295
C         23.02785        40.23396         0.36361
C         23.04581        41.62082         0.24756
C         22.99359        44.59868         0.34033
C         23.00115        45.92829         0.57150
C         25.43788        24.50903         0.46323
C         24.27774        25.19558         0.37089
C         25.47897        27.35704         0.18239
C         24.24786        26.64326         0.30809
C         25.43732        28.76648        -0.02572
C         24.21717        29.46610        -0.00848
C         25.45637        31.65523        -0.06782
C         24.21445        30.93116        -0.13381
C         25.44987        33.08973        -0.04451
C         24.21461        33.78677        -0.18929
C         25.46901        35.95010         0.19054
C         24.22316        35.29180        -0.36243
C         25.42148        37.33761         0.51767
C         24.21681        38.05420         0.54970
C         25.41217        40.23464         0.85093
C         24.20890        39.50679         0.64453
C         25.43716        41.65492         0.69503
C         24.23048        42.35132         0.40159
C         25.40296        44.49651         0.96095
C         24.29147        43.84954         0.12543
C         25.46982        45.99404         0.77705
C         24.24104        46.68389         0.68118
C         25.42866        48.79673         0.76421
C         24.23922        48.09507         0.67733
C         28.00906        23.08440         0.10749
C         27.98607        24.46905         0.21765
C         26.75088        25.21185         0.69688
C         27.95115        27.36483         0.17043
C         26.72095        26.65165         0.24354
C         27.93307        28.76218         0.05231
C         26.70122        29.48770        -0.40615
C         27.90635        31.67524         0.00386
C         26.69143        30.96035        -0.06384
C         27.90966        33.10461         0.09582
C         26.68351        33.80837         0.07503
C         27.93501        35.93690         0.46460
C         26.67684        35.24353         0.24441
C         27.94773        37.30957         0.74856
C         26.65799        37.98848         0.98215
C         27.94873        40.18611         1.25876
C         26.62899        39.48352         1.22425
C         27.94258        41.66802         1.00705
C         26.68125        42.38870         0.76243
C         27.92411        44.52751         0.72791
C         26.72007        43.79746         0.73589
C         27.95930        45.96713         0.87111
C         26.68592        46.69292         0.85380
C         27.91479        48.84808         0.92197
C         26.67934        48.12532         0.85223
C         27.97734        50.25401         0.87863
C         30.40781        23.06404        -0.33143
C         29.20246        22.38795        -0.15711
C         30.40086        24.49651        -0.30511
C         29.19448        25.19851         0.00394
C         30.41726        27.31258        -0.15810
C         29.21302        26.63101         0.08637
C         30.49393        28.76594         0.05584
C         29.14751        29.53079         0.22939
C         30.38098        31.66215        -0.01124
C         29.15862        30.97809         0.02461
C         30.38606        33.09605         0.07340
C         29.16455        33.80281         0.18365
C         30.41101        35.91419         0.48884
C         29.17756        35.22260         0.36881
C         30.41758        37.33737         0.67010
C         29.18177        38.03652         0.81468
C         30.42292        40.16280         0.97905
C         29.19855        39.44827         0.99502
C         30.46111        41.59470         0.85348
C         29.21252        42.28292         0.56136
C         30.46422        44.48401         0.70977
C         29.19493        43.83433         0.47317
C         30.47446        45.91905         1.15612
C         29.16563        46.64536         0.93936
C         30.41051        48.82120         0.62912
C         29.20467        48.12468         1.20955
C         30.40820        50.20324         0.53841
C         29.18975        50.92067         0.79746
C         32.93998        20.23730        -0.35408
C         31.78301        20.93863        -0.16214
C         32.85259        23.06342        -0.69216
C         31.70114        22.36913        -0.41277
C         32.78799        24.49021        -1.19738
C         31.59305        25.22132        -0.61167
C         32.77202        27.36831        -1.04103
C         31.59094        26.60941        -0.54882
C         32.75827        28.86716        -1.04881
C         31.62146        29.56381        -0.40940
C         32.85523        31.69429        -0.40330
C         31.61597        30.94655        -0.25908
C         32.85996        33.10238        -0.14531
C         31.63257        33.80235         0.08788
C         32.89988        35.89650         0.35882
C         31.65051        35.19802         0.34039
C         32.93902        37.29389         0.92886
C         31.64726        38.05784         0.77558
C         32.93342        40.17032         1.27973
C         31.65452        39.43685         0.94184
C         32.92458        41.63765         0.88458
C         31.68576        42.31212         0.75669
C         32.90512        44.48957         0.61296
C         31.66323        43.76531         0.66741
C         32.86887        45.93274         0.45130
C         31.67939        46.63181         0.58495
C         32.87703        48.78712         0.08770
C         31.56347        48.03696         0.06380
C         32.85937        50.21683         0.04176
C         31.62696        50.92645         0.17303
C         32.81647        53.02611        -0.17527
C         31.63565        52.32504         0.02906
C         35.41390        18.78605        -1.09188
C         35.36043        20.22880        -0.96122
C         34.17835        20.89875        -0.66135
C         35.29036        23.06933        -1.28841
C         34.19498        22.40230        -0.46354
C         35.32351        24.55525        -1.03397
C         34.08973        25.26048        -1.05104
C         35.28854        27.41237        -0.98429
C         34.07746        26.66236        -1.05259
C         35.30366        28.84203        -0.94613
C         34.05580        29.64013        -1.28144
C         35.29521        31.72697        -0.63874
C         34.05565        31.03043        -0.68559
C         35.31198        33.13132        -0.44598
C         34.07993        33.82789        -0.22310
C         35.29996        36.02818        -0.38520
C         34.07480        35.24047         0.00949
C         35.37404        37.41182         0.20026
C         34.17220        38.09519         0.57293
C         35.46505        40.20072         0.98389
C         34.17348        39.45191         0.81022
C         35.38849        41.66307         0.62326
C         34.14347        42.34459         0.69272
C         35.33868        44.49783         0.26769
C         34.12235        43.78568         0.52113
C         35.28914        45.91535         0.03327
C         34.09924        46.62783         0.11559
C         35.31990        48.80380        -0.16061
C         34.08219        48.08325        -0.01015
C         35.32097        50.22830        -0.20572
C         34.08053        50.94000        -0.12412
C         35.30334        53.08958        -0.36784
C         34.06269        52.36400        -0.22460
C         35.33852        54.50657        -0.45791
C         37.82934        18.84977        -1.59140
C         36.55660        18.13083        -1.40314
C         37.85987        20.27911        -1.22520
C         36.61590        20.96844        -1.08800
C         37.82468        23.09246        -0.98055
C         36.61239        22.36962        -1.07495
C         37.80016        24.51803        -0.83128
C         36.53423        25.23501        -0.87135
C         37.72358        27.37312        -0.66492
C         36.53199        26.68120        -0.83197
C         37.79936        28.82241        -1.03678
C         36.50522        29.56264        -0.83699
C         37.77338        31.68878        -0.69998
C         36.53023        30.98641        -0.75031
C         37.79031        33.11193        -0.58032
C         36.56955        33.84434        -0.45083
C         37.81146        35.96917        -0.30954
C         36.59184        35.25278        -0.30576
C         37.82511        37.39311        -0.15253
C         36.60587        38.09964         0.14877
C         37.84930        40.21972         0.23926
C         36.65924        39.49981         0.40542
C         37.84736        41.66049         0.29706
C         36.59256        42.36139         0.39460
C         37.82017        44.47661         0.14937
C         36.57734        43.78580         0.23423
C         37.78122        45.94686         0.12355
C         36.54414        46.59734        -0.45791
C         37.75178        48.80159        -0.43953
C         36.55454        48.10311        -0.29808
C         37.78800        50.23593        -0.44001
C         36.54890        50.94620        -0.33972
C         37.76874        53.09115        -0.48800
C         36.53724        52.37719        -0.40331
C         37.78210        54.52064        -0.54148
C         36.52760        55.19713        -0.54594
C         40.35113        15.99254        -1.15092
C         39.20516        16.63997        -1.51125
C         40.38560        18.87457        -1.31723
C         39.16678        18.10399        -1.65298
C         40.34410        20.23358        -1.15267
C         39.08224        20.96371        -1.11123
C         40.26329        23.10464        -0.61714
C         39.06881        22.38921        -0.89582
C         40.24788        24.50700        -0.46601
C         38.99946        25.19767        -0.56662
C         40.22693        27.39870        -0.10128
C         38.94088        26.64203        -0.29743
C         40.25195        28.85858        -0.33327
C         39.03276        29.56196        -0.59279
C         40.31165        31.66832        -0.88425
C         39.01151        30.95072        -0.66399
C         40.26959        33.13827        -0.57781
C         39.04391        33.82983        -0.54373
C         40.27616        35.97187        -0.51044
C         39.05372        35.25974        -0.44079
C         40.28535        37.41061        -0.41990
C         39.05223        38.10670        -0.18826
C         40.29862        40.24056        -0.11146
C         39.07205        39.52244        -0.03647
C         40.30476        41.66149        -0.00276
C         39.06193        42.36776         0.15142
C         40.30919        44.52471         0.02291
C         39.05372        43.80427         0.13584
C         40.33224        45.92597        -0.08050
C         39.07295        46.68408         0.00947
C         40.32876        48.77198        -0.72622
C         39.02737        48.05399        -0.57536
C         40.33881        50.28266        -0.89123
C         39.01493        50.94715        -0.52603
C         40.22777        53.09101        -0.40945
C         39.00199        52.36502        -0.49139
C         40.24991        54.49666        -0.53313
C         39.02374        55.22457        -0.61034
C         40.24693        57.33301        -0.86189
C         39.08963        56.67299        -0.62967
C         42.71623        16.01056        -0.49792
C         41.58622        16.68251        -0.96466
C         42.84057        18.84619        -0.68494
C         41.70544        18.12905        -1.38149
C         42.83066        20.23556        -0.61612
C         41.63737        21.03114        -1.10780
C         42.76665        23.09983        -0.22713
C         41.48500        22.30027        -0.24769
C         42.74927        24.52218        -0.20944
C         41.48839        25.24641        -0.26461
C         42.70497        27.38815         0.02147
C         41.49468        26.64165        -0.16246
C         42.66723        28.78882         0.14892
C         41.47163        29.53397        -0.14064
C         42.69063        31.68508        -0.18837
C         41.52044        30.96950        -0.31631
C         42.73034        33.11862        -0.39995
C         41.49685        33.83710        -0.51819
C         42.75701        35.94692        -0.67578
C         41.51654        35.26228        -0.56868
C         42.71830        37.41724        -1.02005
C         41.49080        38.12436        -0.51631
C         42.76297        40.24928        -0.36942
C         41.52572        39.53496        -0.34231
C         42.77446        41.65790        -0.22294
C         41.53771        42.37259        -0.08490
C         42.78257        44.50844        -0.09178
C         41.54605        43.80038        -0.04790
C         42.79343        45.93528        -0.11728
C         41.55869        46.64514        -0.20551
C         42.76701        48.78468        -0.15967
C         41.57230        48.06548        -0.33480
C         42.70802        50.24214        -0.01751
C         41.53789        50.91863        -0.21376
C         42.74015        53.16817         0.10674
C         41.44340        52.37625        -0.00128
C         42.71956        54.56753        -0.35771
C         41.51271        55.19766        -0.62003
C         42.76679        57.33922        -0.94438
C         41.49827        56.58263        -1.22376
C         43.90906        16.68180        -0.21880
C         45.16841        18.80572         0.14674
C         43.98761        18.10024        -0.26593
C         45.13237        20.21449         0.23496
C         43.96837        20.93508        -0.12728
C         45.18914        23.09043         0.17065
C         43.96496        22.38646        -0.05833
C         45.19911        24.51188         0.06707
C         43.96898        25.23065        -0.11382
C         45.16725        27.36135         0.13390
C         43.97517        26.67787         0.01787
C         45.21769        28.77456         0.65979
C         43.89600        29.52961         0.51514
C         45.20426        31.72393         0.04798
C         43.92166        31.02234         0.28493
C         45.18804        33.07111        -0.24823
C         43.95112        33.81112        -0.38814
C         45.23345        35.94614        -0.63285
C         43.97336        35.24174        -0.59754
C         45.25296        37.40193        -1.05543
C         43.99751        38.15363        -0.72910
C         45.27017        40.25587        -0.47076
C         44.01211        39.52061        -0.53246
C         45.26106        41.66017        -0.29893
C         44.02047        42.37726        -0.21354
C         45.26219        44.52373        -0.09161
C         44.02364        43.79318        -0.12496
C         45.26678        45.94078        -0.04358
C         44.02334        46.66104        -0.08506
C         45.24595        48.82610        -0.00562
C         44.00133        48.08029        -0.05417
C         45.21497        50.20195         0.11646
C         43.95156        50.94893         0.50312
C         45.18049        53.12612        -0.04997
C         44.01023        52.42421         0.10754
C         45.18731        54.55121        -0.35380
C         43.98069        55.25643        -0.49822
C         43.92846        56.69627        -0.69529
C         47.58643        18.75489         0.63590
C         46.42782        18.11654         0.32675
C         47.60778        20.18060         0.99028
C         46.30231        20.94880         0.75775
C         47.58846        23.09665         0.75260
C         46.38587        22.40477         0.52854
C         47.61205        24.52781         0.58609
C         46.42520        25.19797         0.21281
C         47.67639        27.37058         0.33709
C         46.46220        26.64734        -0.15299
C         47.66804        28.80819         0.03581
C         46.41314        29.55732         0.14704
C         47.70480        31.64597         0.06792
C         46.43966        30.93887         0.04942
C         47.62990        33.11376         0.18672
C         46.48820        33.77644        -0.54909
C         47.66974        36.00798        -0.33219
C         46.43645        35.28238        -0.42218
C         47.69992        37.40232        -0.53101
C         46.50920        38.13631        -0.68348
C         47.75815        40.26307        -0.40725
C         46.50863        39.54682        -0.56052
C         47.73963        41.68260        -0.23211
C         46.50215        42.38616        -0.20761
C         47.74048        44.51426         0.01308
C         46.50206        43.80478        -0.09829
C         47.73988        45.95999         0.05254
C         46.51182        46.66122         0.00432
C         47.73510        48.78458        -0.05074
C         46.51440        48.09772        -0.02708
C         47.74235        50.27623        -0.26851
C         46.47940        50.94524         0.22651
C         47.75691        53.13379        -0.15678
C         46.48094        52.44369         0.16299
C         47.65794        54.52594        -0.48991
C         46.46082        55.18911        -0.55417
C         50.11561        20.29507         1.23722
C         48.86057        20.95571         1.05777
C         49.98912        23.10477         1.38418
C         48.82190        22.38252         1.07650
C         49.95055        24.56154         1.41342
C         48.79841        25.27465         0.87567
C         50.11161        27.42760         0.81011
C         48.84274        26.69995         0.69620
C         50.17439        28.83058         0.57465
C         48.98085        29.55965         0.12507
C         50.16489        31.73570         0.46670
C         48.92203        31.01565         0.26540
C         50.18108        33.14271         0.46141
C         48.89434        33.86903         0.42967
C         50.21539        36.04975         0.13552
C         48.88009        35.34807         0.20739
C         50.22623        37.41138        -0.33978
C         48.99803        38.11345        -0.80258
C         50.22528        40.27938        -0.35260
C         48.99282        39.58359        -0.46213
C         50.21949        41.68683        -0.15853
C         48.97148        42.39514        -0.09330
C         50.23275        44.52317         0.41955
C         48.95731        43.80506         0.05259
C         50.23037        45.98332         0.05515
C         48.98562        46.67594         0.03617
C         50.22741        48.81652        -0.14688
C         48.97912        48.09687        -0.04410
C         50.25047        50.24029        -0.15206
C         49.00015        50.97354         0.28914
C         50.23027        53.08857        -0.31993
C         48.96876        52.44684        -0.09513
C         51.24163        20.96031         1.61501
C         52.52729        23.14435         1.48097
C         51.23877        22.43149         1.91592
C         52.55369        24.54373         1.31900
C         51.31586        25.32941         1.45098
C         52.57069        27.40122         0.90072
C         51.31927        26.73381         1.03124
C         52.59846        28.82631         0.81814
C         51.37705        29.54913         0.71098
C         52.60516        31.70612         0.69641
C         51.39442        31.00817         0.61087
C         52.64541        33.11999         0.53165
C         51.42127        33.84642         0.41754
C         52.69739        35.90685         0.06158
C         51.47000        35.26371         0.20566
C         52.76610        37.32842        -0.34677
C         51.48767        38.10452        -0.52962
C         52.71439        40.21584        -0.24922
C         51.49607        39.56755        -0.39752
C         52.73498        41.69978        -0.52060
C         51.45798        42.41759        -0.14943
C         52.70537        44.53767        -0.14169
C         51.47739        43.79748        -0.02115
C         52.70282        45.94416        -0.16809
C         51.44254        46.66733        -0.12368
C         52.68762        48.80137        -0.40623
C         51.45008        48.09495        -0.24677
C         52.68153        50.21910        -0.51305
C         51.44307        50.94263        -0.35662
C         51.40128        52.38567        -0.40166
C         54.93523        23.09245         1.08922
C         53.73807        22.43902         1.36056
C         54.98841        24.48925         0.91786
C         53.77211        25.22829         1.01928
C         55.02978        27.34745         0.71183
C         53.79201        26.66105         0.89874
C         55.04853        28.80277         0.70825
C         53.84874        29.51223         0.80309
C         55.13762        31.68840         0.71336
C         53.86337        30.98750         1.11154
C         55.14791        33.07759         0.55991
C         53.90164        33.81531         0.48615
C         55.17930        35.93734         0.25514
C         53.92729        35.20692         0.26424
C         55.19773        37.35416         0.18867
C         53.98581        38.08824        -0.03366
C         55.16313        40.20388         0.35822
C         53.93716        39.48396        -0.03628
C         55.16969        41.71806         0.34644
C         53.95428        42.43257        -0.05415
C         55.20774        44.54169        -0.12057
C         53.95834        43.81585        -0.12198
C         55.18089        45.95941        -0.28347
C         53.93943        46.66025        -0.29880
C         55.15795        48.79157        -0.60838
C         53.93241        48.08507        -0.44091
C         55.10867        50.20459        -0.76439
C         53.91841        50.89229        -0.71529
C         57.46637        24.50308         0.51320
C         56.23491        25.18973         0.64514
C         57.46049        27.34469         0.11914
C         56.22144        26.60630         0.55584
C         57.54232        28.73611         0.71276
C         56.29853        29.52450         0.69633
C         57.62246        31.63269         0.57520
C         56.35369        30.93075         0.68873
C         57.62586        33.06204         0.47683
C         56.39613        33.78867         0.44704
C         57.65156        35.92777         0.39814
C         56.40377        35.20909         0.35772
C         57.66141        37.34369         0.45483
C         56.44682        38.07896         0.32848
C         57.66464        40.28219         0.75861
C         56.43342        39.48872         0.36348
C         57.65564        41.71591         0.25106
C         56.45973        42.42029         0.18447
C         57.67162        44.53179        -0.25371
C         56.43344        43.83314        -0.08480
C         57.65233        45.94879        -0.43810
C         56.41636        46.66914        -0.43883
C         57.66128        48.74835        -0.79318
C         56.41335        48.07978        -0.61696
C         58.68694        25.18501         0.36159
C         59.97271        27.29336         0.10910
C         58.74188        26.56958         0.26385
C         60.03545        28.65370         0.19172
C         58.87059        29.44932         0.64228
C         60.05856        31.64214         0.39139
C         58.84839        30.92506         0.53677
C         60.07512        33.01999         0.33572
C         58.86948        33.77363         0.38040
C         60.11441        35.95058         0.26133
C         58.88067        35.19972         0.36397
C         60.15737        37.29018         0.43297
C         58.93816        38.06280         0.85448
C         60.03952        40.19497         0.01088
C         58.93234        39.52440         0.45076
C         60.05075        41.60621        -0.18778
C         58.89906        42.37965        -0.04746
C         60.10608        44.54794        -0.44071
C         58.90128        43.82007        -0.25617
C         60.09795        45.91823        -0.61658
C         58.87972        46.64651        -0.61860
C         58.85226        48.05963        -0.79543
O         46.69773        20.53032         2.10210
O         52.26621        37.58442        -1.71864
O         28.05364        41.13674         2.37807
O         29.15673        42.95970        -0.71701
O         50.53205        25.11709         2.66667
O         48.46209        29.10297        -1.18833
O         39.40897        27.01520         1.07721
O         38.49111        18.56835        -2.87578
O         32.39805        28.11246        -2.27257
O         29.98319        29.14043         1.37032
O         41.93131        52.87123         1.29494
O         38.36067        46.59730         1.29716
O         43.73468        30.45597         1.64810
O         26.48695        38.55168         2.34184
O         54.98607        41.00806         1.65557
O         46.55008        51.72670         1.47928
O         49.39240        36.00786         1.41771
O         58.32456        28.91240         1.92417
O         47.94665        33.56211         1.53186
O         39.67097        48.12627        -1.89285
O         26.75481        29.44735        -1.89244
H         25.93490        29.87569        -2.22055
O         35.70244        40.19032         2.44799
H         34.82922        40.39561         2.87276
O         42.07756        18.11635        -2.80445
H         42.15615        19.05557        -3.08515
O         34.16376        29.88084        -2.72225
H         33.61529        29.18185        -3.15602
O         33.00313        40.13152         2.76030
H         32.97301        39.17443         3.00460
O         42.58113        37.44114        -2.51350
H         42.38062        38.36874        -2.76614
O         29.36860        48.25918         2.71687
H         28.49270        48.06145         3.11494
O         51.20551        22.55789         3.37919
H         51.01263        23.50917         3.56890
O         49.10300        38.05841        -2.29230
H         50.04036        38.23198        -2.53155
O         57.57393        40.39188         2.23622
H         56.64595        40.69933         2.42112
O         24.66251        44.00133        -1.27198
H         23.94404        43.62630        -1.82189
O         41.92919        21.41043        -2.48082
H         41.13881        21.86458        -2.84270
O         46.79146        33.53872        -1.96322
H         46.13412        34.02945        -2.50126
O         53.84899        31.05236         2.59330
H         54.66583        30.61152         2.91239
O         26.90763        25.26798         2.16830
H         26.16363        25.80262         2.51902
O         47.72504        50.48825        -1.71238
H         48.46780        49.97889        -2.10045
O         46.60786        26.66986        -1.64304
H         47.10094        27.48642        -1.88434
O         30.68197        45.88790         2.62012
H         30.45008        46.79447         2.95077
O         41.25734        21.81380         1.10963
H         41.15247        22.59186         1.69665
O         40.52589        50.56254        -2.31298
H         40.08007        49.82606        -2.79456
O         45.29926        37.32657        -2.53816
H         44.36390        37.19192        -2.84023
O         35.10372        36.26644        -1.84049
H         35.11090        35.38870        -2.28003
O         58.94658        38.05157         2.32393
H         58.38747        38.81659         2.61840
O         24.27363        35.50362        -1.82329
H         24.24659        36.47215        -1.97556
O         36.62492        46.32689        -1.89500
H         35.84835        46.74164        -2.32551
O         41.45095        56.40245        -2.68977
H         42.25688        55.90574        -2.94612
O         49.02715        50.86751         1.73235
H         48.20878        51.30412         2.07453
O         37.96444        28.78443        -2.52806
H         37.07585        28.61281        -2.91088
O         40.50973        31.59720        -2.35675
H         39.65098        31.81283        -2.77992
O         33.07220        37.11480         2.39654
H         32.34635        36.52027         2.68573
O         32.54144        24.41096        -2.64048
H         31.76950        23.82257        -2.77840
O         31.23706        47.86992        -1.38306
H         31.96750        47.35475        -1.78811
O         50.27553        44.50302         1.89989
H         50.29900        43.56245         2.17815
O         25.03583        44.26578         2.35185
H         25.78582        44.54261         2.91816
O         57.29622        27.59012        -1.32885
H         57.22389        26.71577        -1.76719
O         45.47883        28.61553         2.09077
H         45.03303        29.37668         2.53551
O         34.52736        22.63969         0.93935
H         33.84074        22.20292         1.48621
O         34.93188        22.86672        -2.68330
H         35.45363        23.48733        -3.23237
O         52.81378        41.77721        -2.00460
H         52.00579        41.34738        -2.35947
O         43.89816        50.89636         1.95781
H         44.73528        51.30443         2.28190
H         22.08893        26.80076         0.40979
H         22.05291        29.26136         0.22417
H         22.06938        31.13442        -0.36031
H         22.08238        33.57523        -0.49089
H         22.01544        35.44871         0.08403
H         22.03548        37.78969         0.70805
H         22.08065        39.70422         0.19736
H         22.10469        42.13571         0.00856
H         22.03198        44.07877         0.21677
H         22.05339        46.48296         0.65147
H         25.40473        23.41161         0.51713
H         23.31919        24.65790         0.30764
H         25.39525        49.89414         0.76342
H         23.28486        48.63623         0.60440
H         27.09571        22.49595         0.26732
H         27.05432        50.85049         0.87041
H         29.16524        21.29116        -0.19846
H         29.18234        52.01797         0.78852
H         32.91417        19.14180        -0.26490
H         30.86975        20.39079         0.10557
H         32.76390        54.11776        -0.27775
H         30.69931        52.89520         0.08266
H         34.48611        18.20807        -0.97978
H         34.40187        55.07951        -0.45348
H         36.53333        17.04445        -1.56634
H         36.49609        56.29252        -0.61470
H         40.33727        14.90223        -0.99932
H         38.29128        16.06506        -1.71271
H         40.27003        58.43299        -0.87154
H         38.17517        57.25073        -0.43320
H         42.65326        14.92806        -0.30965
H         42.75590        58.43323        -1.06353
H         44.76602        16.09758         0.14126
H         44.85119        57.28233        -0.57943
H         48.53060        18.19251         0.61509
H         46.47257        17.04243         0.09946
H         48.57611        55.09157        -0.69886
H         46.47898        56.25710        -0.80955
H         50.16044        19.20201         1.12629
H         50.26792        54.18139        -0.43233
H         52.14445        20.37691         1.84037
H         52.33275        52.94650        -0.55364
H         55.85146        22.49130         1.01914
H         53.76126        21.34950         1.49003
H         56.03532        50.77379        -0.91396
H         53.94014        51.98415        -0.82599
H         57.49313        23.40802         0.58480
H         57.68482        49.83724        -0.93234
H         59.62291        24.60637         0.35970
H         60.89004        26.71939        -0.09541
H         60.99407        29.15982         0.01086
H         61.01314        31.09975         0.36611
H         61.04417        33.53045         0.26815
H         61.04826        35.41688         0.03566
H         61.12916        37.80203         0.39205
H         60.97755        39.65568        -0.18333
H         61.00031        42.07082        -0.48437
H         61.07023        44.02167        -0.43352
H         61.04494        46.46043        -0.75218
H         59.80063        48.59871        -0.93398
