         210
 CSIRO Nanostructure Databank - Neutral Graphene Oxide Data Set
C         30.35480        31.59569         0.29751
C         30.47924        32.83082         0.33105
C         30.44417        35.97277         0.35640
C         30.45202        37.21309         0.22997
C         30.48858        40.26783        -0.39167
C         30.43868        41.47318        -0.74158
C         32.81946        28.87876         0.05021
C         31.68196        29.36787         0.15698
C         32.83372        31.56757         0.04116
C         31.48745        30.79439        -0.31295
C         32.83086        32.98103         0.23132
C         31.59628        33.71893         0.35104
C         32.81164        35.87125         0.33842
C         31.57960        35.11287         0.36022
C         32.81488        37.31373         0.25103
C         31.59949        38.05191         0.14517
C         32.82502        40.18476        -0.21472
C         31.60167        39.44578        -0.11948
C         32.83429        41.57985        -0.56966
C         31.59270        42.27573        -0.88819
C         32.91081        44.17059        -1.32476
C         31.78408        43.62555        -1.28062
C         35.57433        27.34620        -0.19616
C         35.34428        28.75923        -0.13373
C         34.13435        29.42951         0.00650
C         35.32126        31.59446         0.07889
C         34.07471        30.87748         0.04236
C         35.32216        33.01383         0.23621
C         34.06103        33.72494         0.31886
C         35.27369        35.90602         0.59620
C         34.02732        35.13964         0.39732
C         35.28493        37.36084         0.34177
C         34.05923        38.05036         0.20278
C         35.28409        40.18966         0.07172
C         34.05994        39.47747         0.01790
C         35.30628        41.61880        -0.18725
C         34.09591        42.27482        -0.59912
C         35.41252        44.34505        -0.93845
C         34.18428        43.65597        -0.97862
C         35.65439        45.69887        -1.27649
C         37.89727        27.27039        -0.58012
C         36.57786        26.64654        -0.38536
C         37.85470        28.75779        -0.30472
C         36.58812        29.46565        -0.22735
C         37.78802        31.62143        -0.10198
C         36.56737        30.89629        -0.07316
C         37.78814        33.02365         0.06687
C         36.55956        33.70685         0.26519
C         37.82704        35.91759         0.26521
C         36.59319        35.15379         0.53733
C         37.78632        37.35102         0.28896
C         36.52542        38.05463         0.30681
C         37.74641        40.20295         0.34518
C         36.51447        39.48287         0.25300
C         37.65731        41.68719         0.66502
C         36.50875        42.34378        -0.06283
C         37.84557        44.43952        -0.28036
C         36.60476        43.71266        -0.42724
C         37.94246        45.81650        -0.63090
C         36.73002        46.32627        -1.17550
C         40.41955        24.52596         0.00733
C         39.37805        25.08547        -0.39918
C         40.45296        27.24805        -0.13049
C         39.21679        26.52915        -0.55850
C         40.28660        28.69953         0.29286
C         39.05517        29.42729        -0.20580
C         40.30727        31.63393         0.02657
C         39.07736        30.91498        -0.47046
C         40.25434        33.06532         0.01522
C         39.04368        33.76828         0.03792
C         40.26925        35.97076         0.07546
C         39.03091        35.22198         0.08897
C         40.26489        37.40035         0.16350
C         38.99788        38.09201         0.21781
C         40.22876        40.29320         0.28774
C         38.95775        39.51894         0.29632
C         40.16860        41.60823         1.03353
C         38.98096        42.42431         0.54947
C         40.37839        44.47542         0.11366
C         39.04174        43.74162         0.19476
C         40.28369        45.98917         0.41483
C         39.12404        46.58437        -0.43199
C         40.48110        48.62602        -0.75440
C         39.43763        47.86042        -0.76096
C         42.94845        24.62234         0.66990
C         41.67385        25.10750         0.30109
C         42.87620        27.36459         0.43342
C         41.62202        26.56856         0.21893
C         42.76060        28.84152         0.57482
C         41.56272        29.50479         0.26705
C         42.72166        31.68361         0.66988
C         41.49607        30.93044         0.28926
C         42.71522        33.16669         0.49134
C         41.54491        33.80479        -0.21599
C         42.72061        35.98434         0.15422
C         41.50055        35.28811         0.04790
C         42.73061        37.40729         0.24260
C         41.50144        38.10020         0.21411
C         42.78866        40.26800         0.66974
C         41.53555        39.57534         0.26570
C         42.80222        41.64722         0.98898
C         41.49729        42.37039         1.12963
C         42.77188        44.63339         1.06801
C         41.47696        43.86301         0.97394
C         42.77660        46.06254         0.66192
C         41.63858        46.69191         0.21784
C         43.01310        48.58795        -0.25543
C         41.68281        48.08620        -0.32994
C         43.93689        25.24617         1.12717
C         45.23044        27.47830         1.53448
C         44.21100        26.65809         0.85467
C         44.98287        28.85539         1.60533
C         43.93528        29.56881         0.95949
C         45.23491        31.72546         0.62940
C         44.02843        30.99363         0.80097
C         45.20280        33.13173         0.29558
C         44.00025        33.86144         0.30916
C         45.19685        35.97527         0.09418
C         43.97610        35.26588         0.14872
C         45.20590        37.40867         0.21815
C         43.98780        38.12156         0.33141
C         45.25774        40.22739         0.65922
C         44.00705        39.54254         0.54589
C         45.28127        41.65653         0.85378
C         44.04163        42.35105         1.01101
C         45.34121        44.54929         0.85845
C         44.06860        43.83565         1.14594
C         45.31817        45.96308         0.79202
C         44.09126        46.80847         0.96989
C         44.07800        48.04434         0.08360
C         47.66295        27.84708         1.82148
C         46.59189        27.19737         1.83412
C         47.95954        29.14485         1.28479
C         46.82977        29.98814         1.39949
C         47.64124        31.66926        -0.16100
C         46.56551        31.12850         0.62099
C         47.57024        33.07710        -0.47941
C         46.40785        33.81418        -0.07567
C         47.62383        35.96921        -0.27002
C         46.40735        35.24400        -0.09076
C         47.67823        37.37690        -0.01647
C         46.45912        38.10040         0.28203
C         47.75279        40.17711         0.72971
C         46.46833        39.49053         0.53319
C         47.79158        41.65239         0.77808
C         46.54396        42.35384         0.87765
C         47.82281        44.46952         0.91154
C         46.56040        43.80583         0.87712
C         47.69137        45.85450         0.79825
C         46.61083        46.50369         0.71164
C         50.30032        29.07334         0.20481
C         49.01020        29.60816         0.44907
C         49.82168        31.14232        -1.28268
C         48.81338        30.81306        -0.33339
C         49.71836        33.29074        -1.72442
C         48.66899        33.86456        -0.98493
C         49.99687        35.96179        -0.98881
C         48.77256        35.26975        -0.72185
C         50.06583        37.36496        -0.66511
C         48.91776        38.03879        -0.14226
C         50.22959        40.22181         0.01020
C         49.04117        39.42186         0.35546
C         50.25216        41.61968         0.30511
C         49.05037        42.29098         0.76713
C         50.33066        44.38435         0.74148
C         49.07413        43.73875         1.27759
C         51.27369        29.52320        -0.45574
C         52.04640        31.60960        -1.91349
C         51.16758        30.66325        -1.29895
C         51.95871        32.83148        -2.15359
C         51.00168        33.86139        -1.86845
C         52.27236        36.07176        -1.59438
C         51.14057        35.23040        -1.49893
C         52.31447        37.30004        -1.33249
C         51.27933        38.12093        -0.84395
C         52.42892        40.38690        -0.76390
C         51.33548        39.52227        -0.56630
C         52.50969        41.62324        -0.52330
C         51.47075        42.38389         0.02418
C         51.32429        43.76345         0.34266
O         49.46601        32.03709        -2.30681
O         48.60643        39.55720         1.74793
O         35.98200        35.52329         1.82817
O         43.43352        44.38545         2.34774
O         43.95029        27.01213        -0.52078
O         38.59858        26.98445        -1.80300
O         40.95690        40.25081        -0.96206
O         42.45640        32.62288         1.81076
O         41.23765        43.28285         2.27482
O         45.86326        29.64691         2.36842
O         49.15575        43.68267         2.70618
H         49.02720        44.58558         3.06433
O         39.17216        31.02556        -1.94811
H         38.43779        30.49968        -2.33216
O         31.35626        30.80950        -1.70801
H         30.53559        30.34006        -1.96195
O         39.87444        41.17713         2.40169
H         40.13740        41.92743         2.98766
O         41.84702        33.64096        -1.64207
H         41.03638        33.84799        -2.15327
O         40.00889        28.55868         1.74901
H         39.97833        29.46095         2.13589
O         37.27374        41.73876         2.07783
H         38.04655        41.37836         2.58107
O         39.92408        46.11662         1.79230
H         40.04115        47.04727         2.07431
O         40.87643        44.32733        -1.23833
H         40.17760        44.61076        -1.86518
O         44.01716        47.21933         2.33022
H         44.91322        47.47527         2.63214
