         320
 CSIRO Nanostructure Databank - Neutral Graphene Oxide Data Set
C         30.14545        31.79269        -0.90203
C         30.22912        33.06111        -0.58451
C         30.10496        36.18881        -0.06364
C         30.31920        37.39028         0.36197
C         30.27157        40.51395         0.47807
C         30.21397        41.61434        -0.06835
C         32.44138        28.86226        -0.42052
C         31.43759        29.52089        -0.78743
C         32.53132        31.62872        -0.25675
C         31.17082        30.90907        -0.79992
C         32.58236        33.14347        -0.63561
C         31.25141        33.87584        -0.24133
C         32.59731        36.05367         0.15427
C         31.26891        35.29346         0.16663
C         32.64553        37.57559        -0.03005
C         31.36839        38.25644         0.48876
C         32.65972        40.43268         0.57148
C         31.37018        39.64934         1.02897
C         32.63082        41.75485        -0.13491
C         31.29833        42.27509        -0.86297
C         32.57950        44.35630        -0.91997
C         31.49423        43.76507        -0.86618
C         35.21073        27.28955         0.28832
C         35.09813        28.66509        -0.26746
C         33.82360        29.36131        -0.56728
C         35.06030        31.55607         0.03972
C         33.83765        30.91393        -0.72811
C         35.14543        33.08277        -0.34939
C         33.81277        33.83056         0.05745
C         35.15567        36.06317         0.07300
C         33.85142        35.34110        -0.34137
C         35.23653        37.40028         0.32956
C         33.94594        38.16386         0.55313
C         35.23267        40.28338         0.04910
C         33.96328        39.66129         0.63758
C         35.21576        41.82875         0.11376
C         33.94592        42.38616        -0.64233
C         35.20573        44.66263        -0.37447
C         33.90768        43.92476        -0.45113
C         35.40286        46.08117        -0.72540
C         37.66658        27.28829         0.19160
C         36.34074        26.76946         0.27132
C         37.64410        28.66990         0.06957
C         36.39862        29.43862        -0.04863
C         37.60994        31.56894         0.52238
C         36.39522        30.81234        -0.05193
C         37.70014        33.04887         0.04518
C         36.36216        33.78760         0.35368
C         37.99145        36.00424         1.32889
C         36.33337        35.20042        -0.25425
C         37.80259        37.53471         1.25851
C         36.60360        38.15166         0.36328
C         37.77447        40.41040         0.36126
C         36.48598        39.68041         0.74951
C         37.75976        41.70893        -0.02750
C         36.49931        42.42215        -0.50480
C         37.74739        44.63459        -0.16643
C         36.52352        43.93853        -0.31149
C         37.80293        46.11863        -0.25037
C         36.51567        46.61190        -0.62313
C         40.04253        24.38552         0.24741
C         39.01860        25.08389         0.24939
C         40.21927        27.14313         0.18604
C         38.87237        26.49580        -0.21548
C         40.18025        28.64648         0.47641
C         38.94106        29.39116        -0.01432
C         40.16191        31.57653         0.81344
C         38.93390        30.87289         0.22101
C         40.18377        33.06932         0.46895
C         39.00945        33.78174         0.49829
C         40.22582        35.98901         0.49682
C         39.05185        35.26466         0.57746
C         40.20224        37.46383         0.47822
C         39.07762        38.20601         0.74313
C         40.29627        40.41371         0.19817
C         39.08118        39.74040         0.80512
C         40.30318        41.79033         0.03163
C         39.02445        42.47862        -0.35401
C         40.19208        44.60555         0.45019
C         38.96237        43.92985         0.03350
C         40.18020        46.14113         0.45257
C         38.95906        46.82112        -0.06236
C         40.21896        48.92080        -0.02965
C         39.18396        48.23985        -0.17228
C         42.63949        24.39058        -0.08803
C         41.40051        24.87573         0.61528
C         42.68953        27.13962         0.00522
C         41.37001        26.43815         0.33809
C         42.72812        28.57883         0.57096
C         41.48146        29.38533         0.04450
C         42.77821        31.56257         0.43808
C         41.49116        30.82059         0.59123
C         42.76210        33.03735         0.51956
C         41.50183        33.77543         0.13923
C         42.76151        35.94589         0.17751
C         41.53226        35.22687         0.69060
C         42.72367        37.39919        -0.14805
C         41.42525        38.14837        -0.06601
C         42.81924        40.34360        -0.24514
C         41.50212        39.63827        -0.14251
C         42.77898        41.84774        -0.50588
C         41.51630        42.53954        -0.03824
C         42.71843        44.66236         0.38946
C         41.52605        43.93631         0.25882
C         42.65602        46.07802         0.98295
C         41.51727        46.82810         0.27920
C         42.78449        48.93935         0.52842
C         41.37739        48.62080         0.83369
C         43.72140        24.98575        -0.12418
C         45.23015        27.08866        -0.08012
C         43.99413        26.36872         0.44427
C         45.23047        28.61471         0.23168
C         44.05172        29.29086         0.29935
C         45.21625        31.53581         0.54918
C         44.02089        30.78104        -0.06594
C         45.15098        33.02731         0.01659
C         44.06564        33.78353         0.81747
C         45.30648        35.96299        -0.11990
C         44.09029        35.27414         0.43486
C         45.17273        37.41698        -0.66490
C         44.02695        38.16936         0.08826
C         45.34134        40.36536        -0.08087
C         43.99281        39.65877        -0.24823
C         45.32555        41.86527        -0.47641
C         44.04263        42.54068         0.07749
C         45.30448        44.67740         0.33506
C         44.01347        44.07580        -0.17776
C         45.30200        46.11536         0.68988
C         44.01981        46.83619         0.92906
C         43.80859        48.27267         0.73112
C         47.63287        27.18197         0.32758
C         46.55230        26.58795         0.40039
C         47.88029        28.62368         0.62904
C         46.56828        29.34830         0.04236
C         47.90309        31.55442         0.41646
C         46.58641        30.81966         0.48387
C         47.83739        32.96625        -0.14417
C         46.51794        33.67812        -0.24916
C         47.77650        35.91711         0.01295
C         46.54639        35.19287        -0.58966
C         47.79507        37.39510        -0.28654
C         46.54073        38.14132        -0.62053
C         47.80805        40.33403        -0.08654
C         46.57301        39.68277        -0.71978
C         47.80027        41.76596         0.13273
C         46.62753        42.51919        -0.02056
C         47.81964        44.67753         0.52290
C         46.60168        44.03748        -0.15471
C         47.67762        46.13743         0.41779
C         46.59704        46.73855         0.35116
C         50.25353        28.83409        -0.51361
C         49.06802        29.28626        -0.01360
C         50.25020        31.54335        -0.54479
C         49.25834        30.79196         0.36714
C         50.37914        33.01193        -0.00550
C         49.11825        33.81032        -0.39964
C         50.39310        35.97186         0.26702
C         49.07544        35.19596         0.25157
C         50.31603        37.45792         0.01711
C         49.01376        38.17459        -0.01271
C         50.29133        40.20786         0.51356
C         48.98072        39.56739         0.09501
C         50.27458        41.72290         0.56438
C         49.09580        42.41026         0.47654
C         50.39390        44.41730         0.90156
C         49.03817        43.88904         0.79297
C         51.37323        29.38938        -0.84459
C         52.65652        31.63051        -1.10972
C         51.61506        30.76085        -0.79839
C         52.56468        32.90406        -0.90529
C         51.63101        33.79981        -0.49367
C         52.63622        36.14754        -0.59822
C         51.78081        35.15913         0.12922
C         52.62348        37.37454        -0.71448
C         51.38441        38.22258        -0.81011
C         52.34845        40.63371        -0.65499
C         51.43334        39.64993        -0.38964
C         52.49847        41.89752        -0.48705
C         51.69743        42.37123         0.76169
C         51.47805        43.84317         0.83410
O         34.60219        28.73916        -1.63246
O         42.67560        36.39612        -1.20291
O         40.00307        45.40651         1.67544
O         32.63659        41.71145         1.31777
O         45.07074        35.92655         1.30380
O         42.33092        30.95131         1.77633
O         48.09119        44.19884         1.85394
O         48.15452        35.44393         1.33685
O         39.08445        30.33809        -1.10979
O         33.98247        38.84056         1.85009
O         34.34378        44.43402         0.80131
O         47.38824        37.61470        -1.70297
O         32.01881        35.60672         1.38707
O         47.07740        32.91878        -1.39019
O         50.61078        36.92723         1.35011
O         47.30104        31.24549         1.69480
O         37.09120        35.50934        -1.18012
O         41.16274        38.81981        -1.35039
O         37.56832        35.45070         2.34514
O         44.83945        46.45022         2.05961
O         35.36150        33.26122        -1.74977
H         34.78805        32.61737        -2.24530
O         41.50210        33.83157        -1.31883
H         42.42879        33.74535        -1.64043
O         42.33849        45.97485         2.37832
H         43.18634        45.82983         2.85983
O         31.30933        41.77043        -2.16598
H         30.54079        42.11917        -2.66092
O         49.64905        31.60444        -1.85314
H         49.57150        30.68858        -2.19863
O         35.19520        39.88671        -1.33637
H         35.97933        40.28298        -1.78783
O         49.18341        34.15205        -1.79774
H         49.27039        33.30840        -2.30666
O         31.36351        39.61663         2.44063
H         31.49052        40.53575         2.76121
O         44.29051        33.76234         2.23861
H         43.65980        34.40475         2.63599
O         41.06493        48.74824         2.15656
H         41.84340        48.54865         2.71463
O         35.23723        42.22847         1.47773
H         34.33157        42.13107         1.85963
O         45.24209        42.04316        -1.90772
H         45.99101        41.54666        -2.32479
O         36.36890        39.91353         2.15197
H         35.58029        39.42984         2.49556
O         39.11799        42.50933        -1.84571
H         39.76445        41.82523        -2.13015
O         38.85832        26.50496        -1.64684
H         39.56248        25.90709        -1.97525
O         46.62852        39.95841        -2.13873
H         47.15963        39.22852        -2.54199
O         36.48321        42.20584        -1.94077
H         37.39801        42.41242        -2.27044
O         41.53429        29.51463        -1.36895
H         41.68144        28.62373        -1.76995
O         37.59130        37.89450         2.62731
H         37.36035        37.05843         3.10620
O         42.65882        27.16842        -1.43837
H         43.58233        27.27077        -1.78525
O         42.70120        42.01103        -1.95454
H         43.54122        41.64505        -2.33531
O         44.01112        42.35795         1.50829
H         43.22459        42.82148         1.87087
O         52.27170        34.96769         1.44473
H         52.09809        35.80194         1.94135
O         46.75218        29.42149        -1.39856
H         46.57684        28.52098        -1.76403
O         32.37487        31.47571         1.13875
H         31.62646        32.03682         1.43498
O         33.85007        35.47642        -1.77725
H         34.49544        34.81210        -2.13946
O         44.79984        37.41440        -2.04316
H         45.46063        36.86028        -2.52046
O         45.27606        26.99323        -1.52927
H         45.35936        26.03956        -1.75604
O         44.17394        38.14178         1.51901
H         44.89836        38.76822         1.77530
O         37.86493        32.94258        -1.37035
H         37.87212        33.84964        -1.75513
O         50.57464        39.72396         1.83746
H         51.30952        40.26465         2.21122
O         46.73448        44.33215        -1.57141
H         45.83518        44.22196        -1.97437
O         34.01491        42.17947        -2.04726
H         34.15590        41.21822        -2.21712
O         44.88323        31.46535         1.94186
H         45.61939        31.84976         2.46718
O         41.62715        24.73636         2.00603
H         41.50410        23.79758         2.25878
O         36.08442        33.82476         1.74369
H         36.68750        33.20553         2.21751
O         34.75588        31.42108         1.44646
H         35.60175        31.43028         1.95841
O         47.90651        28.78993         2.04034
H         48.64003        28.25131         2.40261
O         40.04552        28.71962         1.91579
H         40.89294        28.38617         2.31069
O         32.69919        33.26400        -2.05125
H         31.95197        32.78111        -2.46509
O         33.61875        33.79484         1.45683
H         33.86736        32.89832         1.79575
O         44.53981        33.09804        -1.29681
H         45.20903        32.84668        -1.97273
O         44.09647        26.25207         1.83369
H         43.29969        25.77960         2.17439
O         46.58212        35.28892        -2.01889
H         47.42003        34.85298        -2.31529
O         50.90728        38.16971        -2.16487
H         51.54040        38.65300        -2.73616
O         39.97041        31.58213         2.26331
H         40.87255        31.48797         2.66448
O         42.64951        28.41843         2.00468
H         42.86416        29.29990         2.40195
O         41.70191        35.14349         2.13202
H         40.89294        34.74399         2.51791
O         33.95401        31.11835        -2.14234
H         34.42568        30.33133        -2.51425
O         37.39591        31.53751         1.96517
H         38.27611        31.44291         2.41904
O         50.41754        33.06141         1.41118
H         51.27951        32.72670         1.73620
O         44.04692        30.74150        -1.49906
H         44.90801        30.35064        -1.77690
O         37.09927        38.18529        -0.98206
H         37.14638        37.26186        -1.34057
O         39.19698        40.04538         2.22817
H         38.33394        39.79388         2.64510
O         43.97309        44.34411        -1.60970
H         43.34744        43.68431        -2.01250
O         49.79320        30.74163         1.68658
H         49.03178        30.59129         2.29744
O         41.84244        46.90389        -1.09000
H         41.14921        47.41139        -1.56393
O         32.71483        37.88148        -1.43940
H         33.13254        37.11971        -1.91444
O         52.30597        41.85622         1.91434
H         53.18374        42.27407         2.03314
O         45.64378        40.30222         1.34189
H         45.08806        40.98259         1.80026
