         430
 CSIRO Nanostructure Databank - Neutral Graphene Oxide Data Set
C         27.99133        27.32326        -0.07814
C         27.98019        28.74351        -0.13528
C         26.72603        29.46686        -0.12038
C         27.89009        31.62354        -0.34935
C         26.67161        30.82153        -0.15003
C         27.87882        33.08856        -0.09468
C         26.74879        33.83354        -0.29846
C         27.91561        35.94641         0.15718
C         26.73649        35.24276        -0.09873
C         27.93617        37.39484         0.23371
C         26.69603        38.16846         0.23279
C         27.94451        40.26430        -0.22953
C         26.67149        39.50657         0.06807
C         27.93592        41.75063         0.10208
C         26.74619        42.48564         0.20716
C         27.96670        44.58984         0.27420
C         26.75419        43.87434         0.34732
C         28.02214        46.02790         0.38147
C         30.43239        27.31341         0.02703
C         29.18129        26.63365        -0.02290
C         30.43860        28.74091         0.03115
C         29.20215        29.43577        -0.09670
C         30.44708        31.63841         0.07252
C         29.21171        30.89638        -0.26987
C         30.41375        33.02373         0.24170
C         29.10491        33.73848         0.50391
C         30.37688        35.90991         0.33676
C         29.15811        35.23095         0.27505
C         30.40303        37.35853         0.37310
C         29.14388        38.06324         0.34704
C         30.39395        40.29037         0.58682
C         29.11627        39.54788         0.42178
C         30.44064        41.72563         0.19407
C         29.17795        42.44790         0.10684
C         30.41234        44.62060        -0.10401
C         29.17018        43.86563         0.09659
C         30.46234        46.07531         0.13983
C         29.20785        46.72511         0.34154
C         32.90052        24.49361        -0.05030
C         31.71717        25.18335        -0.06735
C         32.90882        27.31277         0.18606
C         31.67963        26.60351         0.05294
C         32.90253        28.75475         0.26831
C         31.67229        29.46468         0.14272
C         32.88197        31.61420         0.36956
C         31.66829        30.90492         0.17915
C         32.87115        33.04081         0.40302
C         31.63121        33.75136         0.36379
C         32.85223        35.88856         0.38657
C         31.62720        35.18331         0.39942
C         32.86630        37.32516         0.32097
C         31.62400        38.04263         0.41679
C         32.84038        40.20048         0.06573
C         31.69697        39.51712         0.78587
C         32.91872        41.67975         0.19614
C         31.65183        42.38508         0.14925
C         32.92388        44.57406         0.33973
C         31.70201        43.84007        -0.07605
C         32.96373        46.03235         0.11643
C         31.71038        46.74780         0.07736
C         32.98920        48.82162        -0.07407
C         31.78642        48.17730         0.00212
C         35.41207        23.01225         0.04812
C         35.37140        24.44790         0.18215
C         34.15066        25.16552         0.11879
C         35.37506        27.30089         0.42417
C         34.13962        26.59628         0.24219
C         35.36085        28.73491         0.54162
C         34.12459        29.45758         0.46302
C         35.30863        31.61749         0.74670
C         34.12061        30.90175         0.53423
C         35.33324        33.04738         0.67731
C         34.09867        33.75866         0.49885
C         35.33110        35.89211         0.38444
C         34.09703        35.17981         0.43110
C         35.33624        37.30180         0.16124
C         34.09784        37.99498         0.12272
C         35.36336        40.20763        -0.49595
C         34.07362        39.42936        -0.24134
C         35.40865        41.51581         0.33369
C         34.12954        42.31619         0.22608
C         35.45638        44.49796         0.15273
C         34.20471        43.78160         0.42392
C         35.45542        45.91485         0.08626
C         34.20356        46.67943         0.10662
C         35.46656        48.80711        -0.12045
C         34.24313        48.12083        -0.02620
C         35.54152        50.22120        -0.29457
C         37.87242        22.93429         0.48833
C         36.55738        22.29973         0.16096
C         37.79693        24.43677         0.57992
C         36.61122        25.14306         0.43487
C         37.82707        27.29955         0.72600
C         36.59642        26.59283         0.54098
C         37.80855        28.73484         0.79078
C         36.58203        29.42401         0.72988
C         37.79753        31.61699         0.58936
C         36.56614        30.87767         1.14133
C         37.83771        33.07324         1.07110
C         36.54724        33.78032         0.73908
C         37.80731        35.88511         0.37591
C         36.56664        35.17921         0.51800
C         37.81430        37.27805         0.11856
C         36.58678        38.00099         0.00945
C         37.82278        40.11353        -0.23351
C         36.61957        39.41177        -0.20445
C         37.83505        41.58008        -0.27903
C         36.64787        42.30987        -0.03031
C         37.86748        44.43088        -0.31783
C         36.64879        43.73487        -0.06047
C         37.88197        45.86417        -0.33292
C         36.68769        46.59333        -0.09661
C         37.97308        48.75186        -0.47525
C         36.76450        48.08080         0.14193
C         37.96477        50.14503        -0.71147
C         36.72764        50.86670        -0.53820
C         40.02000        20.96903        -2.01734
C         38.91795        21.40299        -1.24808
C         40.21927        23.30757        -0.41805
C         38.99757        22.53103        -0.45465
C         40.28260        24.51542         0.25788
C         39.08432        25.10826         0.96733
C         40.28302        27.31955         0.92537
C         39.05968        26.60992         0.83029
C         40.25407        28.74248         1.08377
C         39.05429        29.44331         0.98794
C         40.27306        31.58185         0.80128
C         39.08358        30.89056         0.88638
C         40.29468        32.98225         0.23228
C         39.05873        33.78867         0.55696
C         40.31453        35.80017        -0.16839
C         39.04926        35.13401         0.33848
C         40.30370        37.29106         0.03175
C         39.07405        37.98184         0.00024
C         40.29745        40.08691        -0.29343
C         39.07288        39.40227        -0.15645
C         40.29432        41.48165        -0.85122
C         39.04644        42.26278        -0.50661
C         40.29207        44.38750        -0.70713
C         39.07291        43.68372        -0.51609
C         40.29795        45.79017        -0.78186
C         39.10905        46.55135        -0.60515
C         40.34562        48.67017        -1.07319
C         39.14834        47.99686        -0.70973
C         40.36284        50.06641        -1.24207
C         39.15141        50.80584        -1.16591
C         40.16270        52.69205        -2.38854
C         39.10425        52.13489        -1.73988
C         42.37886        21.17428        -2.70326
C         41.24586        21.63175        -1.94627
C         42.62271        23.47436        -1.05741
C         41.38665        22.80278        -1.12615
C         42.73791        24.70363        -0.31788
C         41.60439        25.16097         0.56448
C         42.74468        27.39362         0.65266
C         41.54195        26.66340         0.71655
C         42.77814        28.78509         1.01515
C         41.51211        29.46537         1.49672
C         42.70432        31.63033         1.13095
C         41.52039        30.92759         1.09261
C         42.74728        33.05830         0.89053
C         41.56143        33.74807         0.52864
C         42.77000        35.87373         0.52593
C         41.56652        35.13355         0.36232
C         42.77427        37.30983         0.34301
C         41.52467        37.99544         0.10511
C         42.76173        40.14048        -0.03670
C         41.52299        39.41535        -0.07357
C         42.75022        41.57155        -0.24738
C         41.56848        42.22844        -0.57076
C         42.78704        44.41554        -0.50006
C         41.58333        43.66453        -0.99662
C         42.74510        45.83140        -0.55265
C         41.56155        46.47697        -0.88704
C         42.86400        48.58784        -1.22977
C         41.56675        47.85946        -1.44580
C         42.90240        49.96391        -1.84364
C         41.61628        50.76952        -1.58288
C         42.06391        52.04792        -0.86945
C         41.51016        52.11903        -2.30147
C         43.57666        21.82426        -2.64007
C         45.01163        23.61254        -1.68116
C         43.76294        22.98056        -1.80303
C         45.19755        24.72744        -0.67838
C         43.91982        25.43000        -0.30936
C         45.17416        27.50973         0.17444
C         43.96519        26.76873         0.21217
C         45.20857        28.85999         0.66454
C         43.96873        29.48278         1.05342
C         45.21845        31.67811         1.32695
C         43.94986        30.90618         1.57666
C         45.20435        33.04005         1.23414
C         43.96350        33.77451         1.01204
C         45.22391        35.92733         0.86853
C         43.97851        35.18607         0.82676
C         45.22087        37.34797         0.68997
C         43.97089        38.03944         0.45146
C         45.18494        40.22243         0.37107
C         43.97343        39.47465         0.26174
C         45.20599        41.61061         0.14065
C         43.99443        42.30433        -0.14513
C         45.22208        44.47735        -0.10872
C         43.98304        43.72619        -0.24321
C         45.20975        45.85807        -0.13349
C         43.91928        46.63849        -0.05608
C         45.22923        48.77929        -0.61078
C         43.98186        48.02634        -0.67857
C         45.28680        50.12924        -0.96716
C         44.00718        50.78712        -1.22981
C         43.53028        51.94186        -0.70222
C         47.39251        23.78935        -2.21953
C         46.19257        23.12982        -2.31727
C         47.50760        25.08982        -1.60451
C         46.35132        25.64602        -0.98097
C         47.55979        27.71767        -0.43267
C         46.36237        26.94615        -0.42342
C         47.61380        28.93557         0.25549
C         46.43863        29.54684         0.77014
C         47.71704        31.71145         1.13904
C         46.49842        30.89195         1.49800
C         47.72092        33.08833         1.18009
C         46.45709        33.82599         1.55282
C         47.66601        35.96392         1.02645
C         46.44489        35.25987         1.08518
C         47.66942        37.38680         0.88879
C         46.43400        38.06684         0.76830
C         47.70765        40.24080         0.54962
C         46.41352        39.56395         0.93986
C         47.70411        41.63690         0.29362
C         46.46371        42.34683         0.16641
C         47.71545        44.45551        -0.05142
C         46.47220        43.74725         0.01608
C         47.73026        45.90404        -0.03476
C         46.45367        46.59962         0.08829
C         47.74620        48.80379        -0.30291
C         46.45200        48.13788        -0.11095
C         47.71732        50.17422        -0.69046
C         46.52965        50.82917        -0.94587
C         49.93397        25.26110        -2.12240
C         48.72289        25.81309        -1.63523
C         50.08146        27.79278        -0.83304
C         48.72890        27.27827        -1.27960
C         50.16269        28.99715        -0.09789
C         48.93864        29.54531         0.52016
C         50.22428        31.73144         0.80266
C         48.97886        30.98320         0.98313
C         50.20188        33.13284         0.98207
C         48.94722        33.83236         1.11409
C         50.12721        35.99586         1.18497
C         48.92308        35.25967         1.13050
C         50.14189        37.41158         1.04684
C         48.91793        38.11151         0.88203
C         50.17652        40.23594         0.53645
C         48.92377        39.53551         0.65822
C         50.19485        41.62474         0.24377
C         48.94471        42.33707         0.11962
C         50.15886        44.49125        -0.51828
C         48.92644        43.73310        -0.08389
C         50.19676        45.88457         0.11012
C         48.91722        46.64459         0.01021
C         50.21925        48.75607        -0.03618
C         48.93882        48.07297        -0.06470
C         51.13730        25.92902        -2.02371
C         52.53045        27.81147        -1.12222
C         51.25299        27.18386        -1.33501
C         52.59358        29.07345        -0.45050
C         51.39313        29.66873         0.06825
C         52.65266        31.76775         0.58106
C         51.43413        31.04741         0.53953
C         52.65869        33.15587         0.85751
C         51.43036        33.83113         1.04921
C         52.67507        36.01055         1.49225
C         51.38441        35.25741         1.40640
C         52.63405        37.47371         1.24836
C         51.39945        38.13464         1.01578
C         52.65026        40.23970         0.66505
C         51.41029        39.53318         0.73291
C         52.66601        41.63737         0.34798
C         51.44520        42.30669         0.09281
C         52.77518        44.48057        -0.20135
C         51.46791        43.71054        -0.36106
C         52.77793        45.94787        -0.03790
C         51.48424        46.64715         0.17627
C         51.40490        48.11411         0.07865
C         54.94185        27.89004        -1.48050
C         53.73985        27.23323        -1.60344
C         55.01130        29.16944        -0.85651
C         53.83705        29.74487        -0.32517
C         55.14007        31.86083         0.13303
C         53.94830        31.00727         0.49637
C         55.13323        33.25876         0.47852
C         53.91379        33.90300         0.86073
C         55.12881        36.02103         1.15055
C         53.92858        35.28434         1.16038
C         55.08299        37.43189         1.72137
C         53.84894        38.17197         1.24049
C         55.13136        40.25405         0.89477
C         53.87701        39.55376         0.93102
C         55.15686        41.64062         0.65574
C         53.93045        42.35038         0.37872
C         55.19698        44.47602         0.37135
C         53.97439        43.74341         0.22451
C         55.19641        45.87255         0.28745
C         53.98030        46.58749         0.18530
C         56.24112        29.89783        -0.82179
C         56.27368        31.22207        -0.39680
C         56.31479        34.03800         0.41679
C         56.31884        35.38078         0.76756
C         56.34686        38.20685         1.50602
C         56.34849        39.50439         1.14333
C         56.38572        42.38644         0.71914
C         56.40891        43.74494         0.60077
O         46.33570        47.52882         1.23295
O         29.48026        40.08125         1.73858
O         50.84252        46.04465         1.40367
O         49.11229        29.85323         1.95445
O         31.15054        44.25774        -1.35474
O         52.02159        35.56550         2.72928
O         28.64095        31.29952        -1.58122
O         33.05454        39.70888        -1.29491
O         33.46395        44.19409         1.64668
O         52.31940        43.95559        -1.53276
O         28.17987        40.17490        -1.66752
H         27.44313        40.62890        -2.12698
O         46.30614        39.77521         2.40401
H         47.05340        39.29677         2.82319
O         40.33682        35.59471        -1.61860
H         40.35197        34.61225        -1.75857
O         41.51808        29.40936         2.95558
H         42.33028        29.89363         3.25864
O         36.97084        48.20759         1.60896
H         37.02930        49.16723         1.80562
O         41.45390        47.66355        -2.92488
H         41.71552        46.73777        -3.12473
O         28.92152        33.58362         1.97360
H         28.16141        34.15013         2.22804
O         46.63232        30.58689         2.93421
H         47.50838        30.13077         3.02332
O         37.66435        31.68663        -0.86389
H         37.51508        30.77409        -1.19312
O         35.53208        41.10980         1.72537
H         35.42797        41.90617         2.28804
O         43.87312        30.80627         3.04875
H         44.77481        30.53816         3.35699
O         54.94409        37.26866         3.16904
H         54.11840        36.76446         3.33873
O         42.36919        52.43352        -3.35324
H         42.94419        51.64993        -3.52925
O         46.47318        33.90497         3.01973
H         46.48313        32.98174         3.35826
O         32.01636        39.56808         2.19852
H         31.15780        39.53434         2.68097
O         35.41245        40.56895        -1.89014
H         34.50290        40.44463        -2.25234
O         40.24569        41.31790        -2.33971
H         40.81948        40.55400        -2.56623
O         36.59758        30.82489         2.59130
H         36.97740        31.67335         2.92634
O         41.69659        43.65203        -2.48041
H         41.08699        42.93028        -2.78504
O         37.97972        33.06969         2.53354
H         37.95276        34.00145         2.83800
O         54.21865        30.55000         1.88512
H         55.05095        30.03110         1.85683
O         45.60541        24.04321         0.57919
H         44.79363        23.65389         0.97246
O         41.95997        24.66016         1.91451
H         41.14976        24.80770         2.46987
O         39.29175        24.83740         2.41103
H         39.08614        23.87057         2.51943
O         49.95173        44.73674        -1.93948
H         50.81962        44.57214        -2.38254
O         38.26900        22.41000         1.82508
H         37.44994        22.34759         2.36181
O         43.66441        46.84357         1.37286
H         44.50801        47.19704         1.75016
O         40.24697        32.80895        -1.23774
H         39.35855        32.41186        -1.43001
O         48.49481        27.97294        -2.57929
H         49.18078        27.64550        -3.20066
O         43.11934        49.81069        -3.27282
H         42.50241        49.09224        -3.56493
H         27.03674        26.77807        -0.09547
H         25.80072        28.88291        -0.00407
H         25.71107        31.33761        -0.00752
H         25.82565        33.35165        -0.65207
H         25.78839        35.77648        -0.24167
H         25.74675        37.63483         0.38499
H         25.70397        40.02926         0.05992
H         25.77647        41.96872         0.20247
H         25.80696        44.41824         0.47025
H         27.07909        46.57188         0.53591
H         29.15079        25.53663        -0.00086
H         29.18187        47.81500         0.48175
H         32.87016        23.40186        -0.15617
H         30.78438        24.61859        -0.19177
H         32.98618        49.91604        -0.15978
H         30.86083        48.76783        -0.03099
H         34.48061        22.46557        -0.15234
H         34.62366        50.82451        -0.26857
H         36.51861        21.20271         0.09279
H         36.71786        51.95829        -0.65518
H         39.92083        20.07584        -2.65043
H         37.99275        20.81142        -1.28144
H         40.03048        53.61097        -2.97719
H         38.13081        52.64076        -1.80272
H         42.26143        20.28695        -3.34229
H         41.45639        52.48815        -0.06214
H         44.41856        21.44781        -3.23623
H         44.11933        52.67763        -0.13971
H         48.26857        23.34975        -2.71429
H         46.15632        22.20070        -2.90337
H         48.65657        50.73671        -0.77870
H         46.54092        51.89511        -1.21181
H         49.93968        24.25061        -2.55387
H         50.22699        49.85222        -0.10768
H         52.03695        25.43937        -2.41766
H         52.33591        48.69768         0.05605
H         55.86314        27.43838        -1.87571
H         53.72284        26.25187        -2.09533
H         56.14019        46.42304         0.40367
H         54.00846        47.67884         0.31087
H         57.14604        29.43444        -1.23925
H         57.20989        31.78239        -0.52967
H         57.26582        33.57270         0.12621
H         57.26713        35.93446         0.74663
H         57.30092        37.71182         1.73689
H         57.31609        40.01400         1.04166
H         57.33139        41.86036         0.90072
H         57.35602        44.29717         0.68201
