         252
 CSIRO Nanostructure Databank - Neutral Graphene Oxide Data Set
C         30.80734        31.94316        -2.29050
C         30.66967        33.16621        -2.11196
C         30.48466        36.21254        -0.83361
C         30.47684        37.36496        -0.38739
C         30.42496        40.39604         0.90114
C         30.36939        41.63595         0.89661
C         32.88118        29.01885        -1.43488
C         31.75184        29.57891        -1.71927
C         32.96531        31.66190        -1.42716
C         31.83758        30.99667        -1.95166
C         32.98410        33.16539        -1.36915
C         31.63011        33.85415        -1.20237
C         32.81952        35.94715        -0.12211
C         31.54662        35.21648        -0.62021
C         32.76082        37.42078         0.18897
C         31.52117        38.14730         0.21541
C         32.68199        39.94536         1.34038
C         31.45756        39.39377         0.85795
C         32.65473        42.14714         1.23237
C         31.38002        42.65776         0.82373
C         32.68783        44.36273        -0.08364
C         31.53500        43.88754         0.15384
C         35.61369        27.24991        -0.81826
C         35.38037        28.68922        -1.01038
C         34.09469        29.39809        -0.94137
C         35.37668        31.58815        -0.63364
C         34.02066        30.91017        -0.60022
C         35.43667        32.98740        -0.78214
C         34.25407        33.89403        -1.03790
C         35.36158        36.21543        -0.18497
C         34.18422        35.29365        -0.37333
C         35.22593        37.43502         0.43751
C         33.95416        38.09216         0.54374
C         35.14298        40.31145         0.97338
C         33.94098        39.45507         0.98779
C         35.11198        41.70272         0.81625
C         33.92348        42.57832         0.75833
C         35.24550        44.40518        -0.47271
C         33.97484        43.84632         0.09008
C         35.42362        45.91668        -0.45029
C         38.08484        27.20685        -0.94174
C         36.68682        26.65558        -0.71118
C         37.95993        28.68516        -0.45614
C         36.67761        29.42327        -0.72397
C         37.77077        31.55230        -0.05177
C         36.58757        30.87595        -0.41667
C         37.83116        32.95312        -0.17306
C         36.71907        33.54262        -0.77685
C         37.75066        36.03197         0.47293
C         36.71446        35.72356        -0.35242
C         37.68507        37.33844         1.16043
C         36.34702        38.09277         1.23443
C         37.64324        40.23087         0.89137
C         36.43542        39.59472         0.97541
C         37.68681        41.67325         0.43957
C         36.41020        42.44049         0.74027
C         37.81302        44.54852         0.11861
C         36.47545        43.87167         0.28779
C         37.86382        45.94185        -0.14810
C         36.55302        46.42492        -0.49332
C         40.46610        24.40254         0.29925
C         39.47340        25.15215        -0.10575
C         40.46248        27.21618         0.11829
C         39.20438        26.46073        -0.26363
C         40.37693        28.70693         0.18382
C         39.04590        29.35778         0.00338
C         40.24280        31.56860         0.08128
C         38.96009        30.79411         0.49758
C         40.25521        33.00216         0.62255
C         39.08121        33.80609         0.01585
C         40.27995        35.91142         0.63130
C         38.95788        35.15945         0.78576
C         40.28779        37.31059         0.78891
C         39.01532        38.04344         1.12568
C         40.24400        40.22870         0.71996
C         38.94461        39.50261         0.81904
C         40.25582        41.71361         0.92325
C         38.93627        42.44554         0.84840
C         40.24054        44.56062         0.56901
C         38.99821        43.87563         0.48666
C         40.25091        45.98314         0.45032
C         39.06814        46.66284        -0.00678
C         40.21903        48.82469        -0.60346
C         39.27998        48.03636        -0.31203
C         42.90722        24.56420         1.22287
C         41.61186        24.96648         0.77887
C         42.71593        27.31504         1.42896
C         41.53858        26.50202         0.91706
C         42.78457        28.74374         0.99918
C         41.45051        29.46612         0.95852
C         42.69850        31.58097         0.33419
C         41.53403        30.89092         0.47368
C         42.69624        33.03844         0.12510
C         41.53763        33.75479         0.29443
C         42.70695        35.94637         0.28725
C         41.50181        35.21727         0.37867
C         42.74545        37.33539         0.55457
C         41.52031        38.01195         0.79710
C         42.79403        40.23125         0.74988
C         41.51874        39.48083         0.99280
C         42.62873        41.59533         0.08743
C         41.50531        42.44897         0.65597
C         42.83389        44.56439         0.63245
C         41.49984        43.82516         0.61800
C         42.72775        46.06734         0.43752
C         41.49952        46.68301         0.68336
C         42.80836        48.94299        -0.45716
C         41.48597        48.86573         0.01869
C         43.89646        25.18434         1.64223
C         45.28922        27.43538         1.80697
C         44.02465        26.63628         1.84587
C         45.23754        28.85958         1.30166
C         43.96521        29.41016         0.81951
C         45.21905        31.61325         0.54181
C         43.97643        30.78837         0.15007
C         45.25526        32.99764        -0.06626
C         43.96959        33.75084        -0.17228
C         45.09807        35.81895         0.86520
C         44.01443        35.28750        -0.12350
C         45.30815        37.32392         0.54796
C         44.02918        38.07130         0.52333
C         45.28847        40.25497         0.48758
C         44.01154        39.44910         0.44753
C         45.24974        41.65215        -0.17294
C         43.92076        42.38262        -0.20072
C         45.25273        44.65362        -0.45321
C         43.93238        43.88655        -0.19256
C         45.16653        46.12778        -0.01254
C         43.95145        46.79582         0.17209
C         43.73131        48.18478        -0.02498
C         47.72941        27.29162         1.13992
C         46.63954        26.90340         1.58885
C         48.27743        28.62092         1.10718
C         46.35362        29.65958         1.28582
C         47.83001        31.56645         0.35122
C         46.50553        30.79916         0.29797
C         47.82304        32.99810         0.26995
C         46.51284        33.71932         0.30838
C         48.10093        36.06909         0.53546
C         46.32753        34.94299         0.87811
C         47.80368        37.32785         0.10678
C         46.50842        37.98701         0.34088
C         47.78365        40.18819         0.19239
C         46.46116        39.45501        -0.11051
C         47.81708        41.69248         0.34514
C         46.54291        42.43543        -0.05170
C         47.72848        44.62244         0.06500
C         46.53957        43.92392        -0.01494
C         47.57363        46.04642        -0.08456
C         46.47023        46.64644        -0.04110
C         50.09375        28.80001        -0.57977
C         49.02196        29.32835         0.19374
C         50.20273        31.51180        -0.34556
C         49.01434        30.82660         0.10298
C         50.24208        32.95463        -0.26420
C         49.04037        33.69052         0.05053
C         50.33818        35.92267        -0.28615
C         49.01559        35.18225        -0.27151
C         50.24353        37.34173        -0.70347
C         48.87561        38.02763        -0.73619
C         50.30018        40.19569        -0.49801
C         49.03661        39.44622        -0.18828
C         50.34774        41.71309        -0.34842
C         49.13597        42.44827         0.21144
C         50.17213        44.48922        -0.57001
C         49.06988        44.02451         0.35861
C         51.09702        29.36004        -1.05676
C         52.42742        31.55003        -1.26693
C         51.33252        30.76471        -0.91563
C         52.44426        32.80440        -1.07268
C         51.46909        33.66058        -0.59713
C         52.62232        35.94934        -1.10181
C         51.62147        35.11018        -0.43840
C         52.50950        37.17524        -1.26075
C         51.35399        38.03553        -1.18429
C         52.20661        40.37321        -1.86074
C         51.33159        39.46807        -1.33876
C         52.24263        41.66704        -1.85895
C         51.40970        42.48684        -1.15680
C         51.13988        43.88194        -1.04679
O         36.88707        34.79520        -1.37734
O         32.63152        41.08930         2.15298
O         47.80700        40.82087         1.50170
O         41.44208        48.00160         1.19389
O         46.04989        41.90054        -1.34987
O         41.59466        26.96100         2.30147
O         51.20577        35.62978         0.85036
O         33.48827        35.19010         0.91739
O         36.37344        43.53738         1.70836
O         47.51455        29.39537         2.02624
O         47.39744        35.49931         1.60372
O         39.52961        42.11912         2.13280
O         36.21449        29.16722        -2.12638
O         44.61343        27.14531         3.05693
O         44.66260        33.19447        -1.38492
O         42.28326        40.04302         2.10668
O         38.45143        37.56148         2.40013
O         33.78891        33.83277        -2.42005
O         50.23512        42.02678         1.07139
O         31.20617        34.04524         0.15807
O         40.93423        28.03629        -0.99458
O         43.59847        43.17277        -1.40491
O         39.59641        39.75911        -0.50524
O         50.10253        39.53316         0.78725
O         37.70592        41.63111        -1.01884
H         38.41401        40.99279        -1.28578
O         41.01236        29.54044         2.33780
H         41.75246        29.87276         2.88677
O         35.38890        43.96431        -1.82038
H         34.60950        44.25792        -2.33622
O         45.11260        31.81920         1.97208
H         45.94256        32.22462         2.30162
O         45.40288        44.75960        -1.89066
H         45.32693        43.84612        -2.25493
O         39.52743        34.16435        -1.32364
H         38.74454        34.52210        -1.80799
O         45.43479        40.55072         1.89316
H         45.48653        39.71301         2.39835
O         35.88178        37.95678         2.60347
H         36.66311        38.06468         3.19115
O         44.53191        35.73698         2.19684
H         45.22977        35.98717         2.83928
O         48.46086        38.09081        -2.12534
H         48.34006        37.15553        -2.41908
O         33.58915        31.02890         0.78364
H         32.68080        30.66444         0.85684
O         49.38689        44.34141         1.69256
H         50.13210        43.76043         1.97098
O         38.31324        27.22581        -2.33464
H         37.62093        27.80040        -2.73887
O         44.35641        35.77325        -1.43330
H         44.58494        34.99475        -1.99288
O         48.48931        35.28181        -1.65088
H         48.77853        34.48833        -2.15144
O         44.00463        30.52489        -1.28209
H         43.98154        31.40044        -1.74062
O         38.75304        30.70307         1.91759
H         39.25850        31.43316         2.35471
O         38.75633        34.89062         2.20303
H         38.70765        35.76955         2.65855
O         43.35067        44.40763         1.99319
H         42.69150        44.76601         2.62520
O         40.23370        31.56798        -1.36460
H         40.17403        32.49861        -1.69055
O         42.10189        41.19442        -1.21382
H         42.27882        41.93110        -1.84528
O         46.19932        39.42129        -1.52211
H         46.91609        38.90522        -1.97223
O         40.24387        32.85240         2.05715
H         39.93132        33.69333         2.47693
O         46.55600        30.20676        -1.02172
H         45.63336        30.01085        -1.33409
