         294
 CSIRO Nanostructure Databank - Neutral Graphene Oxide Data Set
C          1.29901         1.91819        -0.52047
C          1.22999         3.34791        -0.35346
C          2.45098         1.21612        -0.30610
C          2.30372         4.07811         0.06706
C          1.10527         6.31354        -0.30621
C          1.11007         7.64350        -0.47164
C          2.21997         5.57323         0.40717
C          2.30766         8.46621        -0.04299
C          1.11905        10.72421        -0.33474
C          1.11778        12.04487        -0.11007
C          2.36045         9.90526        -0.61725
C          2.37307        12.84888         0.15793
C          1.21221        15.05634        -0.40657
C          1.20718        16.50483        -0.56248
C          2.34572        14.30014        -0.33013
C          2.36637        17.20902        -0.72411
C          2.50641        18.63496        -1.00422
C          3.66487         1.89065         0.06823
C          3.56207         3.34803         0.35381
C          4.86468         1.21482         0.20302
C          4.85499         4.09895         0.47507
C          3.57481         6.32321         0.24691
C          3.54776         7.63734        -0.52065
C          4.88181         5.59772         0.30949
C          4.88800         8.39535        -0.49382
C          3.61521        10.60730        -0.14481
C          3.60892        12.08269        -0.29963
C          4.89747         9.96095        -0.39885
C          4.89514        12.79954        -0.55869
C          3.66754        15.04058        -0.24310
C          3.62859        16.40771        -0.93451
C          4.96090        14.31518        -0.74409
C          4.80043        17.25337        -0.38326
C          3.69810        19.24179        -1.25832
C          5.02309        18.49283        -1.27112
C          6.13464         1.88599         0.33818
C          6.10947         3.36801         0.02549
C          7.34024         1.21829         0.37726
C          7.29838         4.16257         0.60254
C          6.14846         6.30478        -0.05530
C          6.15050         7.66375        -0.18273
C          7.44001         5.50329        -0.15643
C          7.36809         8.49100         0.21989
C          6.17523        10.64635        -0.22716
C          6.26619        12.12579        -0.51537
C          7.45400         9.87624        -0.43395
C          7.28779        12.76369         0.48382
C          6.10080        15.00625        -0.04845
C          6.05743        16.47126         0.00137
C          7.22106        14.28764         0.55215
C          7.37906        17.19935        -0.01792
C          6.27389        19.25971        -0.86917
C          7.39922        18.61910        -0.47772
C          8.62209         1.90876         0.32151
C          8.59978         3.36224         0.65607
C          9.81682         1.30456         0.04657
C          9.86962         4.12269         0.63406
C          8.67906         6.26512         0.26685
C          8.67870         7.73994         0.08171
C          9.83320         5.59082         0.49172
C          9.91787         8.48332         0.43549
C          8.72408        10.69452         0.02143
C          8.71621        12.20083         0.17733
C          9.81989         9.95976         0.79431
C         10.02836        13.01274         0.54073
C          8.51334        15.06212         0.81242
C          8.57611        16.24867        -0.20583
C          9.76744        14.29834         1.36635
C          9.95426        16.96463        -0.42112
C          8.69032        19.34303        -0.17628
C          9.92943        18.48996        -0.36656
C         11.10138         2.06998        -0.25336
C         11.15868         3.43885         0.37829
C         12.39603         1.31335        -0.06560
C         12.30886         4.06533         0.70530
C         11.16770         6.29246         0.52186
C         10.95624         7.65627         1.18233
C         12.27781         5.49539         1.23876
C         12.26603         8.39521         1.45633
C         11.20430        10.63051         0.59174
C         11.12550        12.07252         1.06174
C         12.27773         9.88485         1.39697
C         12.25166        12.53840         1.70304
C         10.93939        15.39068         1.51607
C         11.09455        16.42800         0.42416
C         12.27968        14.75527         1.81932
C         12.30188        17.05869         0.26484
C         11.13351        19.10289        -0.50430
C         12.38125        18.36818        -0.37422
C         13.58209         1.88840         0.29095
C         13.61889         3.32795         0.83558
C         14.82371         1.14797         0.02196
C         14.71903         4.15744         0.14527
C         13.55457         6.30697         1.01256
C         13.55606         7.67878         1.21122
C         14.70121         5.64755         0.42692
C         14.70860         8.47985         0.77149
C         13.64347        10.54589         1.53224
C         13.56100        12.03042         1.38379
C         14.70782         9.84692         0.76203
C         14.74099        12.79640         1.17647
C         13.50536        15.12053         1.36395
C         13.53920        16.53020         0.89344
C         14.78265        14.29257         1.46539
C         14.83435        17.23471         0.70824
C         13.59808        18.98287        -0.59319
C         14.85288        18.42049        -0.18572
C         16.08342         1.53544         0.40660
C         16.09551         3.69340         0.54646
C         17.40899         1.15691        -0.04688
C         17.20778         4.24417         0.00823
C         15.82550         6.32834         0.06306
C         15.99743         7.75709         0.48514
C         16.97942         5.61773        -0.62882
C         16.97048         8.51834        -0.38801
C         15.65960        10.76266         0.01114
C         15.87366        12.11003         0.69197
C         16.91439        10.02117        -0.45787
C         17.26818        12.68783         0.78762
C         16.10490        14.99437         1.18270
C         16.12877        16.51520         0.99352
C         17.24641        14.19967         0.68819
C         17.39476        17.24644         0.62167
C         16.04004        19.06516        -0.45614
C         17.32543        18.63232         0.02506
C         18.48342         2.02585        -0.16405
C         18.44973         3.50811        -0.21970
C         19.79157         1.41275        -0.39371
C         19.50739         4.19671        -0.77289
C         18.24742         6.42664        -0.60492
C         18.25584         7.79366        -0.59079
C         19.45823         5.68081        -1.09481
C         19.45357         8.54266        -0.93715
C         18.19270        10.75264        -0.62092
C         18.32221        12.02789        -0.12804
C         19.27515         9.98815        -1.42114
C         19.56568        12.76142        -0.32840
C         18.53429        14.85947         0.50517
C         18.60799        16.37606         0.40938
C         19.68636        14.10207        -0.04958
C         19.73452        16.79586        -0.49446
C         18.32568        19.59375        -0.05233
C         19.75053        19.56917         0.18934
C         20.85947         2.09351        -0.84866
C         20.72389         3.50565        -1.34304
C         21.98043         4.33306        -1.14356
C         20.70896         6.41114        -0.57764
C         20.65742         7.87831        -1.01467
C         21.97384         5.65118        -0.90490
C         21.85263         8.57238        -1.44526
C         20.61713        10.71338        -1.49199
C         20.74914        12.09717        -0.93111
C         21.84175         9.90345        -1.67703
C         22.07142        12.65076        -0.55708
C         20.98701        14.76822        -0.09977
C         21.04263        16.15294        -0.13199
C         22.17260        13.93046        -0.13760
C         22.15971        17.03364         0.13786
C         20.44998        18.58209         0.85447
C         21.85693        18.29167         0.57650
O         15.65848        14.61607         2.58115
O         16.68971         5.41879        -2.01155
O          7.52111        14.97637         1.84421
O         14.04419        17.46211         1.93217
O         16.50310         9.16255        -1.59639
O         19.52072        17.35342        -1.56907
O         20.57269        11.86946        -2.39870
O         19.01946        15.73505         1.63691
O          4.31591         6.33008         1.48280
O          6.67231        17.08814         1.23742
O          4.99694         9.18008        -1.67325
O         11.98843         9.22472         2.65221
O         16.92626        17.21179         2.00027
O         16.17682         2.56487         1.38144
O          4.07045        12.32937        -1.71484
O          4.19207         3.66837         1.67470
O         12.15137        13.61038         2.58433
O          9.63455         8.19613        -0.96038
O          9.06280        11.56127        -1.10218
O          9.29979         3.63756         1.92942
O         11.02504         2.31953        -1.70546
H         11.86613         2.75296        -1.97030
O         11.63957         6.44232        -0.82933
H         10.98182         6.99187        -1.32144
O         14.56517         3.94054        -1.27629
H         15.27568         4.47733        -1.74794
O          3.33549         7.24845        -1.89124
H          3.15308         8.07919        -2.39744
O          1.89982         5.64857         1.82252
H          2.69591         5.30868         2.29909
O          2.33315         8.58255         1.38323
H          2.15999         7.69258         1.77507
O         10.30180         7.42230         2.45618
H         10.87297         6.80082         2.97281
O         20.46605        20.53227        -0.46003
H         19.87584        21.07742        -1.01565
O         17.71210        12.36519         2.16304
H         17.29607        13.03250         2.75672
O          5.32446        18.10966        -2.65331
H          5.25117        18.91324        -3.20939
O          3.59480        16.18234        -2.35747
H          4.19000        16.82730        -2.80887
O          9.45408        10.09608         2.17306
H         10.01008         9.47046         2.70263
O          8.26967        15.56490        -1.45049
H          8.71628        16.05332        -2.18367
O          9.45789        13.82777         2.66868
H          9.45088        14.60541         3.27269
O          4.28331        17.78866         0.87211
H          5.06673        17.95278         1.45289
O         11.60024        10.50996        -0.78663
H         10.82126        10.72416        -1.34985
O          6.80558        12.28554        -1.85365
H          6.04469        12.20085        -2.47068
O         12.01746         5.41812         2.65969
H         12.56182         4.66759         2.99990
O         20.54107         3.40039        -2.79063
H         20.18075         4.28099        -3.07847
O          6.93353         4.51268         1.94818
H          7.73427         4.37321         2.51092
O         16.67982         7.70198         1.79025
H         16.09258         7.22593         2.41554
O          3.89878        15.20111         1.18139
H          3.70017        16.13714         1.43164
O          7.60919         9.63535        -1.84739
H          7.66992        10.52504        -2.27105
O          7.67723         5.25094        -1.56759
H          7.79373         6.11619        -2.01530
O         20.58656         6.39754         0.87455
H         21.37808         6.83543         1.25022
O          2.41840         9.77955        -2.07832
H          2.82257        10.60842        -2.42078
O         14.91758        11.13076        -1.19739
H         15.04508        10.38411        -1.83163
O          6.94825        12.25412         1.77848
H          7.52046        12.70142         2.44407
O          5.24216        14.49933        -2.14738
H          4.55090        14.00326        -2.64268
O         10.38069        16.67854        -1.79504
H         10.73982        15.76324        -1.80433
O          7.14771         8.72875         1.62766
H          7.12193         7.87227         2.10436
O          2.51429        12.91481         1.60348
H          1.86959        13.56409         1.95198
O          6.04849         3.42672        -1.41841
H          6.88571         3.07612        -1.78902
O         19.37084         5.78759        -2.54628
H         18.39600         5.66790        -2.74166
O         10.50836        16.15138         2.68771
H         11.26409        16.69944         2.99145
O         18.79275         9.89159        -2.78069
H         19.06471        10.72001        -3.23511
O          8.63950        19.76841         1.20195
H          8.42845        18.98961         1.75890
O         10.55050        13.53665        -0.70965
H         10.43638        12.82886        -1.38785
O         14.03981        10.42617         2.93989
H         14.95939        10.75841         3.02114
O         13.85001         3.31026         2.27180
H         14.70446         2.83297         2.41812
H          0.38605         1.39130        -0.83133
H          0.26495         3.82985        -0.56151
H          2.47426         0.12608        -0.45067
H          0.22023         5.74262        -0.62247
H          0.25435         8.13784        -0.95663
H          0.15234        10.20613        -0.43966
H          0.15255        12.55590         0.03774
H          0.22582        14.57194        -0.33404
H          0.23378        17.01805        -0.54064
H          1.58872        19.24523        -1.02221
H          4.86640         0.11756         0.10384
H          3.71471        20.31851        -1.49228
H          7.34653         0.11702         0.40498
H          6.32562        20.33389        -1.11468
H          9.82705         0.22428        -0.17124
H          8.77490        20.27189        -0.79433
H         12.41260         0.28708        -0.46947
H         11.18943        20.20011        -0.57655
H         14.73589         0.30241        -0.67789
H         13.61478        19.97800        -1.06407
H         17.59380         0.09396        -0.27632
H         16.00068        20.00911        -1.02274
H         19.89124         0.34377        -0.14610
H         17.99750        20.52679        -0.54811
H         21.82497         1.58396        -0.98917
H         22.94047         3.81872        -1.31316
H         22.93753         6.17816        -0.80766
H         22.77927         8.00422        -1.60391
H         22.74593        10.41631        -2.03249
H         22.96801        12.02587        -0.67023
H         23.15067        14.37643         0.09166
H         23.19829        16.69747         0.00112
H         19.90621        17.90418         1.52635
H         22.62820        19.07137         0.67930
