         324
 CSIRO Nanostructure Databank - Neutral Graphene Oxide Data Set
C          1.22457         2.01035         0.80491
C          1.18230         3.38257         0.61980
C          2.43369         1.32119         0.64106
C          2.34574         4.11259         0.27512
C          1.12595         6.27436         0.39830
C          1.11016         7.65575         0.38206
C          2.31579         5.55648         0.14404
C          2.28244         8.38017         0.08758
C          1.07586        10.67044         0.04013
C          1.07257        12.02102         0.04338
C          2.27026         9.85540         0.34931
C          2.27890        12.83407         0.30982
C          1.13843        15.11114         0.10676
C          1.16192        16.40578         0.44273
C          2.37522        14.29272        -0.22919
C          2.41533        17.19680         0.71728
C          2.58866        18.34323        -0.28891
C          3.59232         2.00680         0.28568
C          3.57297         3.41442         0.09672
C          4.84210         1.20351         0.05739
C          4.77258         4.13817        -0.27930
C          3.50026         6.27015        -0.21549
C          3.47086         7.69979        -0.22517
C          4.70962         5.52219        -0.47930
C          4.63615         8.54961        -0.71721
C          3.59828        10.58992         0.42516
C          3.58480        12.09421         0.42102
C          4.79394         9.86229         0.01065
C          4.80679        12.81932        -0.05828
C          3.64840        14.95488         0.30112
C          3.64246        16.29900         0.69937
C          4.88041        14.26412         0.26772
C          4.86979        16.87068         1.03464
C          3.69515        19.10230        -0.47811
C          4.95865        18.90079         0.22377
C          6.09467         2.03718         0.01382
C          6.04428         3.41979        -0.32544
C          7.30742         1.40347         0.23781
C          7.27006         4.08374        -0.61605
C          5.91156         6.24018        -0.96767
C          5.93853         7.75920        -0.94846
C          7.21797         5.49005        -1.08854
C          7.27059         8.39928        -0.75018
C          6.07113        10.57929        -0.05436
C          6.06150        12.06065        -0.29147
C          7.32731         9.82514        -0.33240
C          7.35383        12.79073        -0.27449
C          6.14330        14.86961         0.52829
C          6.12879        16.27173         0.86385
C          7.37910        14.11229         0.26846
C          7.28596        17.17305         0.98636
C          6.23079        19.14617        -0.20113
C          7.37519        18.52118         0.47722
C          8.53762         2.09104         0.07917
C          8.50117         3.42313        -0.43704
C          9.76942         1.45723         0.38932
C          9.79658         4.05946        -0.75131
C          8.51491         6.28430        -1.21547
C          8.45770         7.72920        -0.87972
C          9.82641         5.54982        -1.11135
C          9.74062         8.46142        -0.65388
C          8.54828        10.60407        -0.66640
C          8.50685        12.03709        -0.62396
C          9.75440         9.93796        -0.80960
C          9.74818        12.67394        -0.91220
C          8.61477        14.64522         0.78132
C          8.44982        16.66992         1.57867
C          9.85117        14.56521         0.12283
C          9.66220        17.33954         1.58659
C          8.61771        19.18518         0.47496
C          9.82024        18.60403         0.97655
C         11.00860         2.12484         0.27906
C         11.03756         3.46905        -0.23290
C         12.22735         1.50326         0.64204
C         12.23953         4.18493        -0.29773
C         11.07182         6.27154        -0.83691
C         11.04344         7.74879        -0.71571
C         12.24109         5.60670        -0.57235
C         12.26322         8.45939        -1.27062
C         11.03055        10.63348        -0.88373
C         10.98963        12.07571        -0.86407
C         12.23891         9.95603        -1.05749
C         12.20756        12.93795        -1.00021
C         11.21041        14.94585         0.36262
C         11.49774        16.17984         1.05376
C         12.30025        14.32821        -0.40028
C         12.41998        17.06675         0.53700
C         11.12202        19.20497         0.85630
C         12.34830        18.51058         0.76088
C         13.46443         2.15828         0.47831
C         13.48112         3.52809         0.01025
C         14.67802         1.50401         0.82305
C         14.70352         4.19386        -0.22857
C         13.49054         6.39266        -0.23026
C         13.54534         7.78998        -0.81883
C         14.75830         5.59689        -0.46577
C         14.74366         8.44407        -0.93123
C         13.48469        10.68431        -1.36719
C         13.49561        12.20255        -1.30857
C         14.78896         9.89803        -1.28761
C         14.82240        12.90498        -1.12273
C         13.51203        15.01411        -0.47260
C         13.52493        16.47435        -0.21957
C         14.82522        14.38290        -0.79766
C         14.85107        17.22489        -0.06408
C         13.57654        19.22336         0.73651
C         14.81997        18.57728         0.56049
C         15.92892         2.09067         0.55494
C         15.93148         3.37051        -0.18662
C         17.15541         1.47875         0.85583
C         17.26153         4.07484        -0.38572
C         15.96624         6.29090        -0.67970
C         16.00108         7.71844        -0.79750
C         17.23654         5.52882        -0.75511
C         17.23074         8.44013        -0.84434
C         16.04778        10.61997        -1.00833
C         15.99740        12.07356        -0.69630
C         17.24041         9.90154        -0.85163
C         17.23630        12.77578        -0.23636
C         16.05863        15.03895        -0.23151
C         16.05623        16.38861         0.07170
C         17.29062        14.27063        -0.10979
C         17.22827        17.05594         0.66873
C         16.02499        19.22654         0.84299
C         17.27922        18.54607         0.74168
C         18.40447         2.16913         0.75344
C         18.42551         3.50963         0.29188
C         19.63561         1.52214         1.10131
C         19.58632         4.35471         0.56052
C         18.51722         6.29531        -0.64534
C         18.46047         7.75969        -0.66228
C         19.71448         5.68262        -0.04186
C         19.69063         8.43585        -0.65493
C         18.50089        10.59901        -0.82233
C         18.54988        11.98761        -0.18837
C         19.68696         9.83878        -0.90853
C         19.76595        12.86828        -0.41968
C         18.46856        14.87145         0.28781
C         18.51977        16.28003         0.71914
C         19.74552        14.12755         0.34870
C         19.79944        17.02423         0.66139
C         18.48316        19.19537         0.84075
C         19.78267        18.52855         0.48581
C         20.87339         2.18306         1.07877
C         20.89252         3.65565         1.00373
C         22.11451         1.51657         1.14413
C         22.14927         4.36919         0.75463
C         20.90532         6.39706         0.03594
C         20.94318         7.78457        -0.38376
C         22.13879         5.73844         0.41679
C         22.16539         8.49863        -0.42037
C         20.96153        10.37175        -1.27575
C         20.94594        12.49371        -0.98992
C         22.18460         9.84980        -0.93045
C         22.27203        12.96885        -0.62080
C         21.04018        14.89180         0.45177
C         20.99665        16.36974         0.54555
C         22.29102        14.26854        -0.04407
C         22.26023        17.09256         0.54000
C         21.00613        19.15313         1.08209
C         22.23993        18.50090         0.94220
C         23.34961         2.21237         1.07207
C         23.37360         3.65288         0.87572
C         24.56953         1.51558         1.11303
C         24.59770         4.34861         0.79901
C         23.37408         6.45048         0.29505
C         23.39213         7.82524        -0.08069
C         24.60353         5.76286         0.53146
C         24.62439         8.52339        -0.20868
C         23.45101        10.63086        -1.30787
C         23.46009        12.21712        -0.85760
C         24.66779         9.84369        -0.78412
C         24.67697        12.96523        -0.67455
C         23.48784        14.98527         0.08923
C         23.45632        16.40459         0.37932
C         24.70656        14.31012        -0.18522
C         24.72782        17.13800         0.31539
C         23.45974        19.13865         1.25654
C         24.71957        18.59856         0.77455
C         25.81325         2.18817         1.01483
C         25.83955         3.62607         0.91519
C         27.03321         1.48120         0.99069
C         27.06728         4.30451         0.90112
C         25.82439         6.47713         0.46005
C         25.85641         7.84374         0.09355
C         27.06490         5.78366         0.86872
C         27.13343         8.51596        -0.05116
C         25.92578        10.32026        -1.08820
C         25.96984        12.46047        -1.03546
C         27.16327         9.83771        -0.57746
C         27.18467        12.91455        -0.54415
C         25.96835        14.98547         0.03302
C         25.99486        16.37363         0.32792
C         27.20279        14.27352        -0.05818
C         27.22130        17.05801         0.47315
C         26.02780        19.21311         1.23322
C         27.24011        18.50116         0.67900
C         28.26210         2.15018         0.85578
C         28.29943         3.58950         0.84495
C         29.48386         1.42046         0.71626
C         29.54859         4.25517         0.68484
C         28.37928         6.51310         0.79512
C         28.36328         7.85777         0.18907
C         29.70179         5.75376         0.90052
C         29.57250         8.48865        -0.16837
C         28.37491        10.61175        -0.60783
C         28.40612        12.09371        -0.61887
C         29.57441         9.88532        -0.43933
C         29.60673        12.75303        -0.44095
C         28.43362        14.95332         0.13257
C         28.45201        16.34304         0.35884
C         29.68156        14.17331        -0.02553
C         29.71135        17.12119         0.31518
C         28.37484        19.21791         0.40754
C         29.61064        18.57011         0.05863
C         30.66927         2.07846         0.50295
C         30.71607         3.50541         0.47248
C         31.95066         4.18467         0.15337
C         30.82801         6.36315         0.08467
C         30.80428         7.70829        -0.26609
C         31.98872         5.53003        -0.08754
C         31.96232         8.37646        -0.84183
C         30.89716        10.55449        -0.48053
C         30.91898        12.05260        -0.47357
C         32.02209         9.72219        -0.95740
C         32.05012        12.83614        -1.03475
C         31.01089        14.90700        -0.20994
C         31.02395        16.41217        -0.10574
C         32.06530        14.17911        -0.95769
C         31.97926        17.22767        -0.85552
C         30.70821        19.26884        -0.40654
C         31.86051        18.58974        -0.90231
O         10.51198         8.13348         0.59068
O          9.95069         4.52799        -2.13506
O         17.70331        16.48322         1.93658
O         30.77238        16.82382         1.26869
O         18.05859         5.74988        -1.95453
O          2.91493        10.07594         1.64407
O         20.46844        14.18466         1.62150
O          5.73666         7.02396        -2.19921
O          4.85766        18.21852         1.46427
O          5.19496        12.43309        -1.42199
O         20.02202         4.31024         1.97122
O         30.66204        14.30413         1.06412
O          8.47952        15.32355         2.01180
O          6.94249        10.10914         1.07227
O         15.07334        13.88419        -2.16527
O          2.44462        14.22197        -1.62438
O         16.66815         3.25291        -1.44693
O         27.65210         6.43883         2.07314
O         20.92410        11.55017        -2.01673
O         24.71632        18.25008        -0.65428
O         26.00926        11.41334        -1.96548
O         14.12466        17.21727        -1.32869
O         31.21683        11.30385         0.76166
O         10.73351        16.62244         2.14792
O         14.16218        10.19959        -2.59734
O          2.94540        12.67435         1.59487
O         12.73120        12.83568        -2.36892
O          9.70946        14.04143        -1.18679
O         16.27034        12.25778         0.76710
O          7.80461         5.79876        -2.38744
O          2.25609        17.78297         2.02867
H          3.10526        18.23396         2.24578
O         30.15623         5.88943         2.28170
H         29.34220         5.95251         2.83518
O         13.41842         6.59463         1.22887
H         14.18267         7.14871         1.49420
O         26.08409        19.18204         2.67265
H         26.42798        18.31091         2.95832
O         12.18600         8.24332        -2.71349
H         12.89235         8.80312        -3.12114
O         19.89706        18.73753        -0.98901
H         20.83336        18.57621        -1.23758
O         18.73163        11.61462         1.21967
H         17.83389        11.59242         1.62843
O         23.50832        10.64132        -2.74194
H         24.37320        11.03352        -3.00009
O          4.95359         0.14955         1.02257
H          4.94931         0.54997         1.91586
O          4.21357         9.02731        -2.04190
H          4.54707         8.36790        -2.69807
H          0.31173         1.46296         1.07652
H          0.22192         3.89677         0.74969
H          2.47920         0.23292         0.78597
H          0.19965         5.74528         0.65334
H          0.18520         8.19241         0.63278
H          0.16394        10.13568        -0.26652
H          0.15680        12.54826        -0.26318
H          0.16652        14.62596        -0.07532
H          0.21181        16.94144         0.59925
H          1.71184        18.56993        -0.91725
H          4.74914         0.69521        -0.94497
H          3.68228        19.86654        -1.27222
H          7.30911         0.34782         0.54579
H          6.41812        19.76628        -1.08974
H          9.75019         0.42210         0.76076
H          8.67555        20.17633         0.00170
H         12.21068         0.47229         1.02526
H         11.16259        20.29857         0.72712
H         14.63479         0.50462         1.28092
H         13.57175        20.29126         1.00196
H         17.15247         0.46986         1.29442
H         16.01170        20.28433         1.14561
H         19.61538         0.43787         1.28692
H         18.49246        20.29072         0.95315
H         22.13014         0.42036         1.23828
H         20.97936        20.20423         1.40583
H         24.56154         0.41999         1.21327
H         23.45966        20.08213         1.82073
H         27.01997         0.38209         1.03780
H         26.05419        20.29219         0.93326
H         29.45221         0.32190         0.74789
H         28.35968        20.31633         0.47648
H         31.60132         1.51352         0.35748
H         32.85671         3.57732         0.01282
H         32.92921         5.97628        -0.43915
H         32.82745         7.77487        -1.15216
H         32.93496        10.20869        -1.32999
H         32.87698        12.30250        -1.52635
H         32.89325        14.74673        -1.40629
H         32.80087        16.73612        -1.39540
H         30.64541        20.36057        -0.51950
H         32.63212        19.17999        -1.41657
