         618
 CSIRO Nanostructure Databank - Neutral Graphene Oxide Data Set
C         23.32426        69.75764        -2.55380
C         23.28554        71.14577        -2.65345
C         22.17097        71.83355        -3.18270
C         23.37836        73.95384        -3.18460
C         22.21594        73.21782        -3.40910
C         25.56876        65.58462        -1.25351
C         25.62194        66.95013        -1.50506
C         24.49446        67.67431        -1.99528
C         25.72181        69.82922        -1.91295
C         24.49622        69.06475        -2.12347
C         25.71884        71.20210        -1.99709
C         24.41157        71.95593        -2.04977
C         25.73701        74.03431        -2.51388
C         24.54327        73.34493        -2.64102
C         27.96042        61.27999        -0.53333
C         27.88205        62.73510        -0.23491
C         26.69162        63.49936        -0.65402
C         27.78120        65.66617        -0.01279
C         26.67445        64.87074        -0.68167
C         27.84376        67.10808        -0.48921
C         26.85555        67.68876        -1.22300
C         28.29656        69.81570        -1.52292
C         27.00627        69.03058        -1.90723
C         28.12010        71.33109        -1.46761
C         26.93608        71.97200        -1.85261
C         28.12431        74.12155        -1.85749
C         26.93512        73.39975        -2.03465
C         30.37390        57.11012        -0.14785
C         30.43786        58.44302        -0.37227
C         29.23725        59.16540        -0.95382
C         30.42954        61.33951        -0.46250
C         29.13144        60.60555        -0.50254
C         30.45013        62.82689        -0.49819
C         29.17128        63.51889        -0.14957
C         30.33618        65.67783        -0.01124
C         29.15350        64.99533        -0.17443
C         30.28751        67.14419         0.22640
C         29.01578        67.88590        -0.02655
C         30.27708        70.10882        -0.06816
C         28.93451        69.39399        -0.18912
C         30.35266        71.43180        -0.42414
C         29.23561        72.09509        -1.06493
C         30.53190        74.19688        -1.23079
C         29.29450        73.49806        -1.35285
C         32.81186        52.76917         0.27408
C         32.72880        54.18815         0.46861
C         31.56670        54.89649         0.28456
C         32.84359        57.01900         0.14003
C         31.49900        56.38519         0.55105
C         32.85012        58.51775         0.25431
C         31.66283        59.20410        -0.06927
C         32.81377        61.33127         0.33085
C         31.66356        60.61668        -0.07091
C         32.69177        62.81919         0.66280
C         31.78245        63.57185        -0.32050
C         32.78802        65.70014         0.47292
C         31.63207        65.02590         0.10025
C         32.81463        67.15124         0.60722
C         31.57947        67.88004         0.20545
C         32.72829        70.09540         0.71469
C         31.53937        69.36376         0.17908
C         32.77291        71.57060         0.45120
C         31.55203        72.24432        -0.10491
C         32.94826        74.20827        -0.67178
C         31.69058        73.58506        -0.72081
C         35.25586        48.50932         0.11443
C         35.22283        49.91570         0.24913
C         34.03228        50.64628         0.25906
C         35.25920        52.78211         0.68262
C         34.01075        52.06879         0.39075
C         35.24940        54.17073         0.93205
C         33.96405        54.88151         0.93320
C         35.30630        57.06942         0.86983
C         34.00446        56.37593         0.86411
C         35.31564        58.48929         0.74459
C         34.05576        59.20996         0.50005
C         35.27742        61.37976         0.70459
C         34.01154        60.62569         0.56380
C         35.19690        62.79912         1.16523
C         33.99952        63.56514         0.79573
C         35.25341        65.67344         0.99545
C         34.03198        64.95848         0.75264
C         35.30816        67.14854         0.67613
C         33.98025        67.84782         0.78919
C         35.28458        70.08240         0.89915
C         33.99567        69.32904         0.95319
C         35.25336        71.49281         0.61017
C         34.09248        72.20125         0.28054
C         35.37559        74.22357        -0.30295
C         34.13201        73.56584        -0.19879
C         37.79409        44.28365        -0.60306
C         37.75824        45.66720        -0.26261
C         36.50820        46.38628        -0.17727
C         37.78856        48.50206         0.03044
C         36.45798        47.76365         0.02796
C         37.66224        49.84590         0.73312
C         36.52417        50.69024         0.21337
C         37.65871        52.73616         1.19052
C         36.47137        52.07821         0.78855
C         37.66870        54.15039         1.29033
C         36.46241        54.87916         1.11973
C         37.72358        57.02897         1.24994
C         36.48103        56.33663         1.11018
C         37.74125        58.45535         1.18600
C         36.53309        59.16872         0.92347
C         37.78623        61.35011         1.30907
C         36.57575        60.64219         0.84331
C         37.77039        62.78713         1.43172
C         36.47234        63.52544         1.46060
C         37.66815        65.69380         1.52536
C         36.46662        65.00532         1.31836
C         37.70332        67.17266         1.60226
C         36.42989        67.91983         1.35446
C         37.76807        70.02761         1.06379
C         36.48933        69.38793         1.08779
C         37.80945        71.50049         0.95103
C         36.50796        72.26127         0.71613
C         37.82134        74.22776        -0.03327
C         36.57981        73.60801         0.10835
C         40.36372        40.14269        -1.50541
C         40.30122        41.43177        -0.98511
C         38.94207        42.07251        -0.81176
C         40.20758        44.21009        -0.24498
C         38.98027        43.56423        -0.57488
C         40.20387        45.60722         0.05222
C         38.97330        46.31087         0.05574
C         40.14629        48.48815         0.63521
C         38.88126        47.66559         0.70956
C         40.15088        49.83809         1.20758
C         38.83606        50.47620         1.45074
C         40.12338        52.64850         2.12119
C         38.73891        51.94465         1.91146
C         40.08970        54.13020         1.78052
C         38.93658        54.83770         1.51456
C         40.14635        57.01634         1.53089
C         38.94542        56.30588         1.43745
C         40.18304        58.44170         1.50203
C         38.97696        59.16706         1.35437
C         40.22061        61.29687         1.63093
C         38.98470        60.61567         1.43332
C         40.21827        62.76410         1.99552
C         38.92881        63.48534         1.68369
C         40.19581        65.73691         1.81732
C         38.89834        64.95686         1.84457
C         40.17653        67.19316         1.52757
C         38.99715        67.88983         1.45326
C         40.24111        69.99532         0.92126
C         38.98790        69.32230         1.16350
C         40.25250        71.40265         0.54376
C         39.05641        72.15374         0.54589
C         40.28727        74.16555        -0.10520
C         39.05632        73.52889         0.16406
C         42.92063        36.13652        -2.79621
C         42.86658        37.47117        -2.39430
C         41.64457        38.15324        -2.19493
C         42.80455        40.10480        -1.20753
C         41.59969        39.46054        -1.66362
C         42.74109        41.39923        -0.61491
C         41.48341        42.09463        -0.56275
C         42.61622        44.14158         0.24027
C         41.44011        43.48324        -0.17635
C         42.62459        45.54149         0.52228
C         41.43157        46.27101         0.37492
C         42.68506        48.45457         0.80956
C         41.46223        47.74285         0.45655
C         42.62904        49.85935         1.05124
C         41.36212        50.55681         1.27038
C         42.58910        52.67430         1.62932
C         41.37095        51.95921         1.57411
C         42.63405        54.09410         1.88655
C         41.34978        54.87081         2.17147
C         42.61726        57.02305         2.02817
C         41.43650        56.24037         1.49142
C         42.66169        58.47911         1.80844
C         41.44618        59.15649         1.61992
C         42.70181        61.28318         1.72225
C         41.43857        60.59239         1.63142
C         42.70766        62.73425         1.37626
C         41.40798        63.48911         1.37620
C         42.71400        65.72526         1.36799
C         41.42502        64.98628         1.38996
C         42.72346        67.12686         1.32377
C         41.48905        67.93065         1.66217
C         42.70124        69.90564         0.69390
C         41.46832        69.29997         1.02855
C         42.68952        71.25727         0.11585
C         41.46256        72.04793         0.19957
C         42.75690        74.13328        -0.19614
C         41.50396        73.45024        -0.06689
C         45.28547        33.23605        -2.91431
C         44.12259        33.98441        -3.04463
C         45.37739        36.00017        -2.47458
C         44.13907        35.38121        -2.80577
C         45.42456        37.45400        -2.23797
C         44.12605        38.21517        -2.15960
C         45.23295        40.05965        -0.87980
C         44.06897        39.47643        -1.38076
C         45.17450        41.32033        -0.19934
C         43.92466        41.98658        -0.09093
C         45.12178        44.09107         0.81050
C         43.83226        43.34573         0.47887
C         45.08648        45.55739         0.68525
C         43.88709        46.25208         0.70659
C         45.12842        48.40397         0.82546
C         43.90911        47.71534         0.78056
C         45.13461        49.91176         0.79554
C         43.83956        50.58338         1.18463
C         45.07551        52.68981         1.61187
C         43.83963        51.97101         1.45379
C         45.09965        54.08528         1.75096
C         43.84789        54.77837         1.88884
C         45.16555        56.99032         1.98604
C         43.89938        56.24417         2.13989
C         45.12767        58.41583         2.07006
C         43.91251        59.16089         1.98132
C         45.12328        61.40637         2.35783
C         43.90015        60.60598         1.91406
C         45.22074        62.82304         1.82012
C         43.97019        63.52539         1.44377
C         45.14672        65.71445         1.44553
C         43.93627        65.01037         1.41262
C         45.17845        67.12253         1.28083
C         43.94897        67.82738         1.17214
C         45.19433        69.92973         0.71739
C         43.94668        69.23817         0.86478
C         45.23947        71.32315         0.41828
C         44.01794        72.00697        -0.02030
C         45.21735        74.17017         0.04089
C         43.98915        73.48361        -0.05594
C         46.49165        33.85024        -2.54835
C         47.87692        35.88298        -2.00402
C         46.54702        35.23346        -2.32754
C         47.76149        37.28675        -1.45356
C         46.60829        38.00396        -1.54903
C         47.57256        39.76619        -0.05450
C         46.60055        39.47898        -1.20079
C         47.62599        41.25539         0.18615
C         46.40102        41.94204         0.23506
C         47.65841        44.07340         0.33989
C         46.44628        43.32697         0.84943
C         47.59363        45.52054         0.05387
C         46.32243        46.28321         0.30304
C         47.59108        48.41018         0.69404
C         46.37649        47.73531         0.60586
C         47.63514        49.74890         1.33477
C         46.33106        50.46676         1.53964
C         47.65212        52.69891         1.68958
C         46.33049        51.94049         1.78684
C         47.58543        54.15800         1.51579
C         46.35511        54.83155         1.72634
C         47.69521        56.95638         1.93439
C         46.35490        56.26283         1.80489
C         47.65308        58.44229         1.70901
C         46.42944        59.13216         2.16660
C         47.67627        61.31757         1.80045
C         46.44414        60.63973         2.25362
C         47.68733        62.80196         1.51411
C         46.39175        63.50764         1.81081
C         47.67575        65.75606         1.83842
C         46.38443        64.99352         1.79883
C         47.66621        67.16540         1.39186
C         46.43274        67.83951         1.21928
C         47.66922        69.94840         0.87829
C         46.43116        69.23921         0.94204
C         47.68015        71.36936         0.67811
C         46.44405        72.05278         0.46106
C         47.67202        74.18129         0.24335
C         46.44635        73.48723         0.23727
C         48.96322        37.90511        -0.90050
C         50.14320        39.72720         0.34568
C         48.91995        39.11309        -0.28920
C         50.12966        41.24587         0.33343
C         48.85752        41.93923         0.34102
C         50.14588        44.09104        -0.01795
C         48.84190        43.38556         0.26835
C         50.11058        45.55803         0.28462
C         48.89039        46.27256         0.02428
C         50.13104        48.46554         0.63024
C         48.86306        47.79001         0.31806
C         50.07755        49.87296         0.80952
C         48.87203        50.55051         1.19267
C         50.01076        52.70382         0.89004
C         48.85812        51.94766         1.27631
C         49.95277        54.11555         0.80962
C         48.78314        54.85481         1.14442
C         49.93506        57.02752         0.79756
C         48.81613        56.28282         1.19260
C         50.01111        58.44684         0.95029
C         48.81519        59.14350         1.43089
C         50.10460        61.29810         1.33006
C         48.80274        60.59555         1.49813
C         50.22074        62.76123         1.57937
C         48.96855        63.51207         1.92847
C         50.20087        65.70919         1.41081
C         48.98402        65.00567         1.88018
C         50.13104        67.07777         1.18553
C         48.89572        67.83323         1.22230
C         50.13592        69.97679         0.93300
C         48.90226        69.24682         0.99421
C         50.14317        71.39337         0.78451
C         48.90492        72.08644         0.63922
C         50.14508        74.19380         0.34789
C         48.91047        73.51140         0.41805
C         51.31396        41.92710         0.40387
C         52.58576        44.14952         0.28899
C         51.33093        43.40983         0.68097
C         52.59655        45.52990         0.26597
C         51.35837        46.26598         0.74111
C         52.58898        48.43310         0.34459
C         51.37564        47.76141         0.47854
C         52.51444        49.92797         0.11423
C         51.25277        50.62317         0.55730
C         52.44584        52.78557         0.30505
C         51.22188        52.01842         0.54118
C         52.41019        54.14594         0.17206
C         51.09623        54.82610         0.20992
C         52.31752        57.07408        -0.19576
C         51.04319        56.33261         0.11496
C         52.34884        58.52875         0.03415
C         51.17571        59.15386         0.52177
C         52.43115        61.40240         0.24697
C         51.16132        60.62853         0.52090
C         52.53505        62.82447         0.65611
C         51.40424        63.51777         1.10158
C         52.62109        65.60589         0.85829
C         51.40900        64.94459         1.14853
C         52.62894        67.06910         0.72933
C         51.35159        67.82088         0.83050
C         52.58793        69.97830         1.01972
C         51.37428        69.28876         1.00680
C         52.61465        71.39311         0.84288
C         51.38444        72.09247         0.70564
C         52.62188        74.18363         0.33703
C         51.38517        73.51574         0.47112
C         53.73567        46.28807        -0.11477
C         55.03859        48.31093        -0.41033
C         53.81249        47.69864        -0.00824
C         55.40948        49.64661        -0.05850
C         53.64987        50.73894         0.66160
C         55.06542        52.74405         0.48245
C         53.70650        52.07774         0.46781
C         54.96833        54.22823         0.15168
C         53.67177        54.95430         0.40577
C         54.88108        57.10557        -0.28401
C         53.62945        56.32651        -0.23330
C         54.80669        58.49011        -0.40030
C         53.58408        59.23332        -0.15846
C         54.87644        61.38525        -0.20998
C         53.66576        60.64746        -0.02509
C         54.90263        62.79355        -0.05659
C         53.76746        63.50355         0.40747
C         55.07357        65.64841         0.44283
C         53.82416        64.92544         0.57907
C         55.15184        67.04056         0.78203
C         53.89518        67.75185         1.10814
C         55.14509        69.98632         1.22249
C         53.85006        69.24242         1.27727
C         55.11245        71.40347         0.81634
C         53.86762        72.08492         0.70638
C         55.09368        74.15967         0.22610
C         53.85759        73.49399         0.42391
C         56.16563        50.58787        -0.71697
C         57.37156        52.82193        -0.42892
C         56.03852        52.10877        -0.57480
C         57.38958        54.19174        -0.26424
C         56.11222        54.92065        -0.13635
C         57.33814        57.03568        -0.45828
C         56.12402        56.37313        -0.31477
C         57.35741        58.46194        -0.80300
C         56.02043        59.23631        -0.76098
C         57.30609        61.34736        -0.75617
C         56.09045        60.68754        -0.57509
C         57.30913        62.82703        -0.89816
C         56.02192        63.61685        -0.66471
C         57.48699        65.63794         0.00212
C         56.24122        64.96868         0.01534
C         57.56660        67.04416         0.35540
C         56.35886        67.73479         0.71527
C         57.63246        69.93472         0.60083
C         56.42895        69.18666         1.00476
C         57.57778        71.32714         0.55617
C         56.33388        72.06075         0.57121
C         57.53918        74.15833        -0.01614
C         56.32327        73.47647         0.27129
C         58.60847        54.94314        -0.25739
C         59.81061        57.09905        -0.36875
C         58.60584        56.34156        -0.33735
C         59.82905        58.50271        -0.48777
C         58.59165        59.23379        -0.64821
C         59.82299        61.36018        -0.75036
C         58.56063        60.62927        -0.74096
C         59.85616        62.73353        -0.78857
C         58.61969        63.54075        -0.85236
C         59.93771        65.57153        -0.32267
C         58.69380        64.95647        -0.40371
C         60.07588        66.93838         0.30694
C         58.79387        67.73880         0.31472
C         60.07235        69.85893         0.24180
C         58.86188        69.18119         0.40603
C         60.13845        71.32658         0.31957
C         58.83057        72.10252         0.47672
C         59.98563        74.15398        -0.30854
C         58.78749        73.51247         0.03038
C         61.05172        59.22282        -0.52502
C         62.31237        61.31546        -0.74669
C         61.08185        60.61474        -0.69175
C         62.37709        62.70918        -0.92700
C         61.09985        63.46579        -1.19549
C         62.35326        65.56788        -0.79692
C         61.14220        64.89265        -0.70081
C         62.39758        67.01102        -0.63628
C         61.27325        67.69516        -0.20531
C         62.46953        69.87580        -0.55398
C         61.39179        69.13671         0.19808
C         62.42936        71.29312        -0.68239
C         61.28201        72.03330        -0.27793
C         62.35220        74.11786        -0.98982
C         61.21645        73.44379        -0.48536
C         63.57571        63.41809        -1.00060
C         64.75279        65.56121        -1.33929
C         63.58544        64.84814        -1.07709
C         64.76933        66.99455        -1.38394
C         63.60255        67.71859        -0.98848
C         64.74232        69.84427        -1.51376
C         63.59954        69.15042        -1.00887
C         64.72189        71.26481        -1.61137
C         63.55733        71.98687        -1.22368
C         64.66936        74.09298        -1.84483
C         63.52943        73.41772        -1.34646
C         65.91386        67.69558        -1.80619
C         67.04076        69.82007        -2.38089
C         65.91462        69.11274        -1.90596
C         67.03198        71.23125        -2.49237
C         65.86235        71.96095        -2.10858
C         66.98714        74.05885        -2.71826
C         65.83502        73.38807        -2.22250
C         68.15852        71.94850        -2.97999
C         68.12338        73.33904        -3.08580
O         41.14285        64.21734         0.14954
O         31.84199        68.59215        -1.06416
O         47.07347        52.29265         2.98211
O         38.05852        51.98943         3.15493
O         37.79770        49.70165         2.15410
O         28.49959        63.03668         1.06756
O         51.95882        67.50192        -0.50568
O         48.93428        47.26808        -1.06723
O         36.80095        67.61304         2.71932
O         52.87457        56.55769        -1.45162
O         51.37808        61.21731        -0.79646
O         56.61380        58.78757        -2.02057
O         43.48639        62.95335         0.14805
O         36.13079        61.19735        -0.48099
O         37.11091        72.19003         2.04908
O         27.10649        68.71023        -3.39814
O         46.71430        45.87128        -1.07470
O         49.09330        64.25464         3.15183
O         46.65449        59.82496         3.46567
O         43.38471        71.36723        -1.17716
O         59.71185        71.88274         1.61887
O         35.62105        63.01675         2.56446
O         46.90215        49.71616         2.63036
O         39.60509        65.38855         3.10850
O         43.14213        56.65394         3.33186
O         40.77691        48.40243        -0.67587
O         44.26803        43.55022         1.87859
O         31.85487        72.29862         1.34100
O         46.91192        65.55336         3.07032
O         30.48327        62.09785        -1.77510
O         33.72523        55.71187         2.14316
O         44.98327        38.30723        -3.36735
O         33.10993        69.74498         2.07344
O         50.60581        61.78507         2.62657
O         50.63590        55.51364        -1.02317
O         56.00115        69.64125         2.34292
O         57.93869        63.29897        -2.16330
O         53.78325        68.34749         2.44247
O         29.42240        67.53201         1.36005
O         54.78184        50.08013         1.14333
O         27.79913        67.44601        -3.56889
H         27.06018        66.81272        -3.74397
O         41.71371        55.98220         0.07973
H         41.54749        56.80639        -0.42413
O         41.22119        55.08199         3.59095
H         41.00060        54.19657         3.98261
O         51.10917        43.55053         2.11052
H         51.90979        43.23720         2.57874
O         52.60523        50.09732        -1.34649
H         51.81705        49.66766        -1.74236
O         47.77550        62.91873         0.04147
H         46.97849        62.50673        -0.35667
O         31.24979        56.58881         1.96234
H         32.00157        56.17071         2.45258
O         28.07351        69.87277         0.86284
H         28.38386        69.47567         1.70565
O         47.06730        40.17622        -2.38603
H         46.49552        39.87433        -3.12918
O         27.47324        65.65712         1.40122
H         28.16651        66.19786         1.85023
O         29.34486        59.18721        -2.39318
H         29.99565        59.87907        -2.63696
O         55.48764        63.97034        -1.97798
H         56.25604        63.98552        -2.59721
O         51.34259        39.21930        -0.23723
H         51.34525        39.45933        -1.18639
O         41.62337        68.16107         3.11368
H         40.78778        68.56342         3.43467
O         38.20192        48.65877        -1.33730
H         37.68473        49.40400        -1.72532
O         48.04730        56.82576         3.36361
H         47.43465        57.39783         3.87587
O         40.37392        52.57368         3.56102
H         39.46623        52.35796         3.94505
O         48.63658        35.05503        -1.11262
H         48.18497        35.04499        -0.24424
O         46.99577        39.15008         1.13353
H         47.48390        39.48025         1.91633
O         45.38864        50.30836        -0.60071
H         44.66417        49.94344        -1.15262
O         60.99970        63.55106        -2.66544
H         60.04706        63.62334        -2.89730
O         51.35494        46.18801         2.21450
H         52.21264        46.54760         2.52553
O         53.65631        55.23622         1.85338
H         54.06347        54.46545         2.30841
O         50.41883        43.98540        -1.45148
H         49.70318        44.45197        -1.93451
O         32.03823        62.88222         1.95951
H         32.68570        62.62805         2.65085
O         32.46761        63.61881        -1.58920
H         32.01055        62.97742        -2.18667
O         38.60975        47.38049         2.09656
H         37.64436        47.26206         2.21536
O         44.86974        61.63770         3.77449
H         45.33640        60.92259         4.26982
O         24.02510        72.17025        -0.64674
H         23.17238        72.65460        -0.65215
O         35.66681        67.24892        -0.75262
H         34.96864        66.79258        -1.27071
O         38.08671        41.75715        -1.91847
H         38.44351        42.19834        -2.71627
O         55.48229        52.52863        -1.85537
H         56.11829        52.29554        -2.56289
O         46.74130        43.11695         2.27277
H         45.87487        42.94017         2.70954
O         55.63289        52.63809         1.80709
H         55.62188        51.68042         2.03978
O         36.80702        50.92219        -1.21913
H         36.03948        51.40503        -1.59430
O         60.37587        66.69375         1.73566
H         60.73045        67.54668         2.09301
O         33.02064        56.70579        -1.27476
H         33.70755        57.30229        -1.63940
O         40.41087        62.80715         3.44097
H         40.13926        63.70796         3.74868
O         29.30726        69.56744        -2.51588
H         28.85655        69.42120        -3.37863
O         61.84024        69.08783         1.62992
H         62.79310        68.85070         1.62667
H         23.42101        75.01152        -3.48395
H         25.78832        75.09185        -2.81715
H         28.14147        75.19856        -2.08067
H         30.58685        75.23727        -1.58581
H         33.04525        75.23096        -1.06728
H         35.41256        75.23783        -0.72746
H         37.86321        75.25828        -0.41634
H         40.29723        75.23708        -0.35243
H         42.74085        75.22872        -0.29890
H         45.22559        75.26727        -0.04276
H         47.67189        75.26855         0.07490
H         50.14662        75.27932         0.16764
H         52.62911        75.26555         0.13661
H         55.08957        75.23777         0.00648
H         57.49621        75.22180        -0.29522
H         59.96132        75.22234        -0.57055
H         62.31070        75.20758        -1.13392
H         64.64760        75.18913        -1.93637
H         66.97397        75.15440        -2.80854
H         22.44846        69.16686        -2.86474
H         21.28053        71.26230        -3.48403
H         21.33837        73.71754        -3.84277
H         24.66396        65.02059        -1.52747
H         23.56239        67.12242        -2.18937
H         27.01929        60.74298        -0.72961
H         25.85799        62.93817        -1.10490
H         29.43660        56.56586        -0.34487
H         28.30274        58.60346        -0.70591
H         31.89048        52.21889         0.02926
H         30.64910        54.36286        -0.00971
H         34.29737        47.96664         0.07613
H         33.07228        50.11486         0.16675
H         36.85815        43.76451        -0.85679
H         35.57182        45.81943        -0.29952
H         39.43391        39.65306        -1.82988
H         38.46332        41.59608         0.09142
H         41.97917        35.60688        -3.00780
H         40.70077        37.64396        -2.44135
H         45.26130        32.15219        -3.09446
H         43.17563        33.49579        -3.31512
H         47.40738        33.25272        -2.43969
H         48.47585        35.93940        -2.95699
H         49.91694        37.36461        -0.99481
H         50.15761        39.41016         1.42983
H         52.25760        41.35784         0.41346
H         53.49471        43.58895         0.01706
H         54.61837        45.74470        -0.48598
H         55.72844        47.70739        -1.02081
H         56.64009        50.27516        -1.66294
H         58.31436        52.27214        -0.57490
H         59.56739        54.40327        -0.24435
H         60.76907        56.56387        -0.29295
H         61.99948        58.66893        -0.45007
H         63.24805        60.74751        -0.62668
H         64.53554        62.87937        -0.97994
H         65.68123        65.01629        -1.56675
H         66.81318        67.13616        -2.10260
H         67.94187        69.26230        -2.67651
H         69.06127        71.39511        -3.27558
H         69.00449        73.87525        -3.46569
