         410
 CSIRO Nanostructure Databank - Neutral Graphene Oxide Data Set
C         27.87542        27.31497        -0.18832
C         27.84166        28.73798        -0.17832
C         26.63304        29.44501        -0.42058
C         27.76820        31.57834        -0.11000
C         26.59792        30.82356        -0.38863
C         27.69992        33.07198        -0.04335
C         26.63198        33.81599        -0.72157
C         27.86801        35.94473        -0.55808
C         26.68017        35.17440        -0.83225
C         27.87336        37.39394        -0.75551
C         26.63464        38.14845        -0.74288
C         27.83018        40.26763        -1.16901
C         26.60936        39.49794        -0.87987
C         27.85902        41.73586        -0.94998
C         26.68790        42.48466        -1.27658
C         27.87554        44.58026        -0.96857
C         26.71308        43.85856        -1.35812
C         27.97672        45.96139        -1.12691
C         30.24359        27.33740         0.38304
C         29.04276        26.63842         0.09190
C         30.26052        28.74643         0.34959
C         29.03589        29.46746         0.08813
C         30.22796        31.63013         0.39467
C         28.96968        30.89497         0.12571
C         30.27141        33.12655         0.39346
C         28.98690        33.87459         0.21382
C         30.33712        35.92023        -0.34101
C         29.05566        35.27379        -0.23536
C         30.34167        37.31735        -0.80973
C         29.07934        38.06721        -0.82799
C         30.36801        40.27534        -0.70349
C         29.14989        39.51710        -1.09631
C         30.27546        41.64068        -0.37618
C         29.03769        42.36715        -0.52990
C         30.25656        44.62432         0.00040
C         28.97985        43.83671        -0.33236
C         30.34544        46.02290        -0.46100
C         29.18347        46.65221        -0.91031
C         32.84411        24.57270         0.71989
C         31.64202        25.17831         0.52010
C         32.78926        27.41108         0.92106
C         31.46860        26.60762         0.78546
C         32.75383        28.83303         0.57088
C         31.52385        29.45527         0.40658
C         32.77474        31.66069         0.08996
C         31.49001        30.89230         0.08899
C         32.74225        33.13094         0.21329
C         31.56189        33.82925         0.14882
C         32.81911        35.96212        -0.17250
C         31.54640        35.26064        -0.09596
C         32.85135        37.36935        -0.35848
C         31.64392        38.10045        -0.76844
C         32.81459        40.24326        -0.34173
C         31.60793        39.57002        -0.58461
C         32.81212        41.66916        -0.08169
C         31.49472        42.32513         0.11995
C         32.79438        44.54505         0.17583
C         31.51780        43.85272         0.25819
C         32.76890        46.00804         0.23305
C         31.60549        46.72287        -0.34021
C         32.96442        48.76508        -0.46270
C         31.73742        48.07670        -0.61149
C         35.19911        23.26852         1.71400
C         35.29636        24.60473         1.27981
C         34.06032        25.30385         0.98642
C         35.30627        27.41516         0.78245
C         34.07034        26.69406         0.88129
C         35.27715        28.81487         0.56533
C         34.01905        29.53965         0.46826
C         35.26074        31.66434         0.19144
C         34.02907        30.92664         0.32087
C         35.25609        33.04685         0.07736
C         34.04168        33.83972         0.47570
C         35.27689        35.95463        -0.07559
C         34.03972        35.26983         0.00523
C         35.29104        37.38150        -0.12966
C         34.06035        38.08440        -0.23525
C         35.28145        40.20923        -0.20379
C         34.06088        39.52074        -0.26892
C         35.25645        41.68039        -0.28532
C         33.99132        42.37254         0.03004
C         35.33757        44.53656         0.33572
C         34.03382        43.78643         0.58530
C         35.38072        46.00217         0.74936
C         34.06986        46.76507         0.47838
C         35.39104        48.86792         0.00872
C         34.12401        48.16109        -0.00298
C         35.44050        50.26750        -0.10436
C         37.57204        23.25357         2.05615
C         36.33219        22.60587         2.13804
C         37.75407        24.56333         1.57166
C         36.55453        25.28223         1.25659
C         37.77232        27.39313         0.80792
C         36.56452        26.70303         0.93042
C         37.76786        28.79224         0.42661
C         36.50479        29.52591         0.36027
C         37.72131        31.64118        -0.09660
C         36.49864        30.91427         0.11329
C         37.74742        33.02382        -0.19315
C         36.46565        33.76861        -0.44234
C         37.73231        35.92485        -0.13541
C         36.51417        35.23982        -0.12272
C         37.75122        37.36408        -0.07800
C         36.52659        38.08949        -0.10756
C         37.76650        40.23126        -0.00302
C         36.52412        39.52063        -0.13327
C         37.79854        41.66615         0.03312
C         36.55684        42.42782        -0.19323
C         37.80562        44.56094         0.14874
C         36.52323        43.87528         0.13993
C         37.81695        45.99800         0.15007
C         36.61271        46.72112         0.24194
C         37.86283        48.84264         0.00174
C         36.61876        48.13627         0.09990
C         37.88026        50.26982        -0.07961
C         36.65075        50.95313        -0.12278
C         40.71009        20.32860         0.51628
C         39.61320        20.81386         1.21864
C         40.58508        23.09239         1.31667
C         39.58273        22.15307         1.64441
C         40.43907        24.55036         1.40899
C         39.10756        25.23692         1.55601
C         40.30382        27.33948         0.60433
C         39.07116        26.73543         1.13227
C         40.20585        28.66482        -0.02033
C         38.95306        29.43718         0.11406
C         40.23562        31.59359        -0.21547
C         38.94507        30.84168        -0.43938
C         40.21806        33.05406        -0.17688
C         38.98793        33.76846        -0.21693
C         40.21634        35.91971        -0.17285
C         38.98676        35.19351        -0.18412
C         40.23314        37.36416        -0.09701
C         38.98023        38.08257        -0.01046
C         40.23057        40.19872         0.53184
C         38.97020        39.49217         0.10767
C         40.24960        41.68052         0.25518
C         39.01201        42.38154         0.16157
C         40.27285        44.52532         0.13675
C         39.01222        43.83151         0.12547
C         40.28607        45.95297         0.06442
C         39.06828        46.69172         0.04553
C         40.33956        48.81114        -0.02411
C         39.08778        48.11307         0.01746
C         40.36132        50.25689        -0.06540
C         39.14832        50.98161        -0.09354
C         40.39033        53.08970        -0.05746
C         39.19580        52.40673        -0.10432
C         43.14146        20.59786         0.03609
C         41.86783        21.13700         0.43195
C         43.03980        23.16992         1.15644
C         41.79766        22.48196         0.87844
C         42.92404        24.72818         1.37581
C         41.58950        25.34061         1.21643
C         42.78285        27.46088         0.51334
C         41.54648        26.72578         0.77367
C         42.78346        28.77748         0.01434
C         41.48181        29.41690        -0.30972
C         42.66185        31.62447        -0.58580
C         41.41038        30.89879        -0.29549
C         42.70728        33.03536        -0.09442
C         41.42550        33.78118        -0.11135
C         42.72434        35.88796        -0.32503
C         41.43482        35.18606        -0.15269
C         42.71453        37.39276        -0.37971
C         41.44489        38.09348        -0.13057
C         42.71048        40.20430         0.12349
C         41.49153        39.49362         0.10323
C         42.72868        41.63902         0.26207
C         41.47707        42.36582         0.25978
C         42.74160        44.50596         0.32086
C         41.49679        43.80359         0.21438
C         42.73627        45.91316         0.24563
C         41.53173        46.65257         0.06041
C         42.81436        48.80423        -0.16203
C         41.53784        48.07980        -0.01905
C         42.85019        50.26343        -0.02005
C         41.61223        50.96345        -0.03089
C         42.87236        53.06522         0.06399
C         41.62425        52.38702        -0.00699
C         44.31557        21.29714         0.20924
C         45.49206        23.35135         1.08536
C         44.32014        22.59686         0.79096
C         45.40773        24.79930         1.15617
C         44.16498        25.44796         1.13289
C         45.42320        27.63106         0.63430
C         44.06498        26.89331         0.95822
C         45.24271        28.77589        -0.24567
C         43.99172        29.43881        -0.37656
C         45.16913        31.71123        -0.82941
C         43.92888        30.87521        -0.81214
C         45.22794        33.08026        -0.47113
C         44.01124        33.74757         0.04483
C         45.23862        35.96411        -0.29993
C         44.00533        35.26159         0.22466
C         45.21621        37.38488        -0.28138
C         43.98323        38.10628        -0.15619
C         45.20864        40.20867         0.08460
C         43.96715        39.49351         0.00976
C         45.20655        41.61904         0.27887
C         43.95894        42.33768         0.33277
C         45.23230        44.43536         0.60251
C         43.99247        43.77231         0.44656
C         45.25430        45.89473         0.80570
C         43.96822        46.65060         0.56587
C         45.31654        48.80916         0.45727
C         44.09923        48.05719         0.11354
C         45.32317        50.20143         0.34735
C         44.08343        50.93996         0.12487
C         44.05589        52.36749         0.14924
C         47.85005        23.44191         1.65020
C         46.74152        22.70438         1.27241
C         47.78382        24.84723         1.59248
C         46.65447        25.55330         1.14966
C         47.88937        27.54295         0.11243
C         46.72512        26.91776         0.66736
C         47.70792        28.73559        -0.69237
C         46.39193        29.11040        -1.00057
C         47.58306        31.72819        -1.31945
C         46.30161        31.16258        -1.41764
C         47.60113        33.13637        -1.08145
C         46.40499        33.81383        -0.70283
C         47.62236        35.99309        -0.86587
C         46.42516        35.27189        -0.61478
C         47.65538        37.38148        -0.60405
C         46.44226        38.09826        -0.34176
C         47.66505        40.21766        -0.00291
C         46.43595        39.51131        -0.10241
C         47.66440        41.57762         0.32592
C         46.44485        42.30282         0.41017
C         47.72618        44.41964         0.68135
C         46.47904        43.73311         0.58741
C         47.76293        45.89262         0.57460
C         46.51044        46.66031         0.70729
C         47.76068        48.79205         1.04844
C         46.51511        48.04577         0.71790
C         47.72927        50.25209         0.86101
C         46.58422        50.89811         0.53742
C         50.91326        25.34414         0.89855
C         49.67119        25.97301         0.99882
C         50.27560        27.57642        -0.71046
C         49.25383        27.01483         0.13443
C         50.07236        28.85037        -1.35926
C         48.82893        29.49078        -1.26480
C         49.92302        31.67480        -1.85973
C         48.76666        30.93029        -1.54306
C         49.75518        33.07290        -2.03911
C         48.77020        33.85040        -1.45460
C         50.17203        35.96289        -0.96441
C         48.85058        35.36707        -1.50735
C         50.12669        37.30409        -0.50684
C         48.91948        38.04499        -0.50954
C         50.22810        40.18228         0.00986
C         48.92898        39.50348        -0.30183
C         50.20279        41.50383         0.69317
C         48.91182        42.25339         0.75604
C         50.21374        44.36782         0.99200
C         48.96187        43.72808         0.80486
C         50.29986        45.80571         1.04942
C         49.08222        46.59629         0.74377
C         50.39822        48.68546         1.15353
C         49.07086        48.04034         1.15702
C         51.83196        25.79580        -0.04160
C         52.64188        27.53623        -1.58216
C         51.55056        26.93506        -0.81314
C         52.54374        28.84085        -1.99526
C         51.23292        29.52074        -1.98998
C         52.56660        31.74756        -1.99288
C         51.22973        31.04275        -2.17223
C         52.62697        33.13328        -1.52928
C         51.64296        34.06633        -1.78604
C         52.63866        35.82719        -0.49826
C         51.44454        35.29686        -1.05491
C         52.64118        37.15424         0.12652
C         51.34116        37.93394         0.07573
C         52.65137        40.02418         0.49220
C         51.45694        39.39127         0.19040
C         52.67828        41.47356         0.69522
C         51.48758        42.21743         0.76861
C         52.69534        44.27410         1.24827
C         51.46702        43.61681         1.03463
C         52.69914        45.69287         1.77553
C         51.48973        46.47980         1.29729
C         51.52107        47.92365         1.24546
C         54.98441        27.41166        -2.29926
C         53.86106        26.78668        -1.85186
C         55.01741        28.84395        -2.42920
C         53.71584        29.58600        -2.60337
C         55.04948        31.62637        -1.82878
C         53.75122        31.02173        -2.07198
C         55.13104        32.91301        -1.08757
C         53.81543        33.65762        -0.83554
C         55.09619        35.74767        -0.29440
C         53.86227        35.10950        -0.55405
C         55.12485        37.16979         0.03761
C         53.91419        37.88863         0.22207
C         55.14256        39.98352         0.59539
C         53.90699        39.28425         0.47883
C         55.15816        41.42690         0.81040
C         53.92229        42.14721         0.86763
C         55.16597        44.24539         1.23906
C         53.91647        43.55444         1.12874
C         55.16502        45.68647         1.40059
C         54.02636        46.38036         1.59611
C         56.20246        29.53870        -2.40458
C         56.21212        30.93436        -2.12089
C         56.33454        33.74217        -1.04429
C         56.30834        35.02909        -0.58217
C         56.33600        37.88381         0.19798
C         56.33935        39.24198         0.47539
C         56.35776        42.14260         0.95599
C         56.36103        43.52921         1.14332
O         48.29442        48.34440         2.36614
O         43.41847        33.07213         1.21457
O         29.25232        44.35363         1.01640
O         31.38101        42.95224         1.44826
O         33.13067        46.56076         1.58011
O         40.76123        28.75162        -1.41482
O         31.11972        37.58098        -2.04114
O         44.42048        46.39091         1.92920
O         42.79994        36.55805        -1.61347
O         44.76941        27.72050         1.92855
O         32.10552        31.23496        -1.19199
O         39.16910        26.31644         2.53746
O         51.02882        30.15137        -3.32342
O         50.72472        33.74836        -2.79398
O         43.02580        23.79897         2.47707
O         43.65173        48.26814        -1.26168
O         48.56010        46.35954        -0.60386
O         31.97500        27.04891         2.08299
O         28.02299        33.63063         1.27438
O         49.46107        41.56316         1.96027
O         48.87559        25.58024         2.08127
O         49.71980        40.21629        -1.36575
O         35.93042        42.17880        -1.51662
O         51.77825        37.24927         1.31293
O         28.55290        39.88639        -2.38903
O         43.08167        31.28445        -1.95876
O         30.29830        32.36635         1.65947
O         38.61720        22.49893         2.57911
O         54.40960        32.82399         0.19520
O         46.19378        29.94998        -2.10336
O         43.98774        35.53936         1.65231
H         43.68680        34.71240         2.10013
O         33.97086        43.63591         2.05729
H         33.03818        43.36301         2.25910
O         36.30991        33.74029        -1.92253
H         36.52860        32.83150        -2.22501
O         34.12743        33.91983         1.95605
H         33.27837        34.28744         2.28390
O         53.53468        29.67488        -4.05153
H         52.58863        29.92390        -4.20460
O         38.85686        30.67728        -1.90465
H         39.57925        30.04640        -2.15484
O         48.78960        35.75281        -2.91510
H         49.51881        35.27373        -3.37193
O         52.52120        45.57520         3.23559
H         51.69515        45.06951         3.39261
O         35.55811        45.97099         2.19603
H         34.80681        45.43611         2.55103
O         40.22346        40.09209         2.01507
H         41.02541        40.55330         2.34328
H         26.95025        26.75907        -0.39681
H         25.71392        28.87606        -0.62142
H         25.64414        31.34049        -0.56108
H         25.76931        33.27289        -1.13283
H         25.82532        35.69366        -1.28845
H         25.69856        37.61598        -0.52389
H         25.66681        40.04172        -0.72119
H         25.78437        41.94284        -1.58765
H         25.84036        44.41044        -1.73528
H         27.11265        46.51570        -1.52085
H         29.03498        25.54003         0.11159
H         29.20954        47.71916        -1.16942
H         32.91276        23.49006         0.54414
H         30.79445        24.58844         0.14403
H         32.99045        49.81453        -0.78638
H         30.88099        48.64921        -0.99175
H         34.22388        22.77248         1.78492
H         34.51027        50.84907        -0.14907
H         36.28449        21.59095         2.55133
H         36.62361        52.04860        -0.18459
H         40.73590        19.28897         0.16177
H         38.77107        20.15596         1.46971
H         40.39834        54.18909        -0.05029
H         38.26313        52.98501        -0.13371
H         43.16942        19.57785        -0.37303
H         42.88097        54.16470         0.07276
H         45.26851        20.83766        -0.08907
H         44.99216        52.93397         0.23540
H         48.78237        22.95283         1.95999
H         46.79153        21.60753         1.24719
H         48.65672        50.82227         1.01154
H         46.61739        51.98849         0.41197
H         51.16357        24.52693         1.58650
H         50.47042        49.78161         1.18557
H         52.81498        25.31262        -0.10063
H         52.49155        48.43374         1.31199
H         55.91444        26.84347        -2.45067
H         53.86973        25.69929        -1.70038
H         56.13210        46.20979         1.35207
H         54.08313        47.46664         1.75112
H         57.15945        28.99598        -2.40348
H         57.18680        31.41424        -1.95511
H         57.28355        33.33257        -1.41879
H         57.26270        35.57126        -0.53551
H         57.30114        37.36934         0.10280
H         57.30986        39.74465         0.58058
H         57.32393        41.62268         0.91383
H         57.31907        44.06215         1.22681
