         490
 CSIRO Nanostructure Databank - Neutral Graphene Oxide Data Set
C         37.67996        49.77299         0.15427
C         36.54336        50.52015         0.03305
C         37.79205        52.47386        -0.69228
C         36.62126        51.92466        -0.29926
C         40.16989        48.46919         0.99272
C         40.15793        49.78422         0.36967
C         38.97991        50.35285        -0.09137
C         40.30539        52.34800        -0.93872
C         38.99630        51.59438        -0.95513
C         40.38227        53.56996        -1.61331
C         42.58558        48.66601         1.58456
C         41.28927        47.91743         1.49821
C         42.59050        49.96736         0.81280
C         41.42357        50.50564         0.28221
C         42.70120        52.53122        -0.39148
C         41.47081        51.80409        -0.34945
C         42.74891        53.77461        -1.08031
C         41.58199        54.27077        -1.68814
C         44.95905        45.84102         0.49194
C         43.78735        46.50344         0.86142
C         45.02581        48.56617         1.20477
C         43.80336        47.86526         1.18909
C         45.05185        50.03755         1.14547
C         43.83873        50.67533         0.74625
C         45.12235        52.72619         0.24180
C         43.89667        51.99039         0.20489
C         45.14569        54.02267        -0.43413
C         44.00668        54.49532        -1.14830
C         45.27940        56.42010        -1.94722
C         44.11076        55.67965        -1.91012
C         47.49795        44.55462        -0.37499
C         47.46932        45.86393         0.15945
C         46.20812        46.48945         0.58263
C         47.47348        48.51291         1.32953
C         46.21455        47.82583         1.04176
C         47.39384        49.93941         1.84055
C         46.25967        50.76847         1.21775
C         47.50281        52.99870         0.94137
C         46.29028        52.16022         0.86603
C         47.44174        54.45707         0.47467
C         46.31398        54.81826        -0.45061
C         47.60524        56.87108        -1.14106
C         46.39677        56.02327        -1.18660
C         47.62685        58.22599        -1.52478
C         49.93857        44.60520        -0.51912
C         48.69948        43.94878        -0.70230
C         49.93050        45.97470        -0.12464
C         48.68683        46.57729         0.20398
C         49.88196        48.81947         0.40223
C         48.74280        47.91992         0.82207
C         49.90988        50.11460         1.18553
C         48.77257        50.53101         1.80883
C         50.03505        53.29884         1.37404
C         48.67700        52.69797         1.59159
C         50.01025        54.28174         0.23433
C         48.74126        54.91914        -0.14154
C         49.94642        57.10674        -0.42573
C         48.79423        56.31929        -0.63072
C         49.93627        58.47139        -0.75702
C         48.76898        59.00562        -1.33265
C         52.39231        41.74975        -0.62815
C         51.20892        42.45465        -0.71121
C         52.39593        44.51407        -0.18731
C         51.18908        43.85904        -0.53604
C         52.46421        46.01155        -0.32593
C         51.16939        46.71448         0.05020
C         52.40523        48.80311         0.57583
C         51.19580        48.06276         0.39005
C         52.39789        50.17231         0.87826
C         51.15280        50.90975         1.10277
C         52.43253        53.00404         0.89552
C         51.17994        52.30123         1.11092
C         52.46583        54.37720         0.58277
C         51.28003        55.04565        -0.05161
C         52.43089        57.24053         0.11240
C         51.12239        56.51781         0.33034
C         52.41785        58.59931        -0.15687
C         51.09446        59.33854        -0.27706
C         52.45119        61.30031        -1.00676
C         51.26220        60.64002        -1.01567
C         54.93479        40.38918        -0.94104
C         54.85399        41.67996        -0.28992
C         53.60112        42.38698        -0.24729
C         54.72673        44.41241         0.72481
C         53.55851        43.77651         0.07292
C         54.69972        45.90608         1.06981
C         53.66580        46.65787         0.28444
C         54.93577        48.74830         0.86836
C         53.73208        48.14467         0.18478
C         54.90060        50.17511         1.04755
C         53.66496        50.87252         0.98620
C         54.89447        53.01934         0.96753
C         53.66856        52.29617         0.99636
C         54.89762        54.43485         0.80655
C         53.67130        55.11616         0.57323
C         54.87993        57.26314         0.39582
C         53.65652        56.53527         0.33405
C         54.86462        58.68432         0.27292
C         53.63945        59.35364        -0.08663
C         54.78531        61.55719        -0.03537
C         53.62988        60.72608        -0.41803
C         54.99929        62.90441        -0.63105
C         57.25788        40.12064        -0.12669
C         56.08226        39.67614        -0.95507
C         57.29389        41.62418         0.01860
C         56.06475        42.30760         0.09172
C         57.31194        44.40705         0.79237
C         56.03394        43.66872         0.67170
C         57.26869        45.84808         0.95575
C         56.07929        46.56881         0.97734
C         57.34309        48.70860         1.58380
C         56.09606        48.01259         1.05712
C         57.36930        50.19817         1.31951
C         56.13143        50.89830         1.20603
C         57.35580        53.04106         1.12077
C         56.12865        52.31660         1.09970
C         57.35615        54.46441         0.96790
C         56.12666        55.15976         0.79225
C         57.34001        57.30441         0.69605
C         56.11557        56.57365         0.61750
C         57.28430        58.73467         0.68773
C         56.06948        59.41215         0.50821
C         57.26662        61.75877         0.59564
C         55.99631        60.89264         0.56328
C         57.45088        62.43758        -0.77778
C         56.22176        63.30934        -1.00740
C         59.79130        37.51809        -1.24060
C         58.59073        38.16389        -0.95290
C         59.78268        40.21752        -0.36855
C         58.56657        39.49979        -0.54373
C         59.74273        41.58341         0.08359
C         58.52661        42.28794         0.29421
C         59.74845        44.39266         1.18689
C         58.50111        43.69333         0.67774
C         59.82672        45.84763         0.72232
C         58.52194        46.63821         0.60455
C         59.83251        48.70670         1.25292
C         58.63901        48.03060         1.19911
C         59.90333        50.21374         1.12361
C         58.57401        50.90158         1.33367
C         59.80416        53.04399         1.38679
C         58.57263        52.32246         1.26749
C         59.78904        54.43634         1.21025
C         58.58906        55.18387         0.97478
C         59.79973        57.39314         1.01179
C         58.58143        56.61307         0.86274
C         59.78795        58.76681         1.09643
C         58.50287        59.48878         1.05739
C         59.78481        61.82892         1.08319
C         58.50222        60.98699         1.03881
C         59.81866        62.88726        -0.01975
C         58.76156        63.21221        -0.83437
C         60.04378        65.05012        -1.87646
C         58.90423        64.29466        -1.78100
C         62.35388        36.33516        -2.06620
C         62.27275        37.50788        -1.31889
C         61.02046        38.17834        -1.05390
C         62.29283        40.20447        -0.44402
C         61.02407        39.53144        -0.59240
C         62.26741        41.67026        -0.26665
C         61.03432        42.23995         0.38106
C         62.28976        44.41357         0.88515
C         61.04302        43.63471         0.92118
C         62.33116        45.75496         1.21443
C         61.10660        46.56593         1.00192
C         62.29570        48.70804         1.53081
C         61.12619        48.03283         1.22304
C         62.32228        50.15061         1.84950
C         61.11345        50.89869         1.75955
C         61.99722        53.17204         2.40126
C         61.01068        52.33565         1.84020
C         62.13533        54.54619         2.04401
C         61.06808        55.16091         1.24535
C         62.28676        57.38513         1.59506
C         61.08487        56.67288         1.14751
C         62.30501        58.81099         1.45063
C         60.99456        59.56036         1.57046
C         62.25029        61.59203         0.81690
C         61.05898        60.99098         1.05878
C         62.35105        63.02287         0.42375
C         61.05922        63.68077        -0.09187
C         62.43153        65.40587        -1.25458
C         61.19879        64.76024        -1.08064
C         62.51303        66.70546        -1.89431
C         64.81241        36.22104        -1.86992
C         63.57183        35.68756        -2.30693
C         64.80410        37.50009        -1.23566
C         63.52193        38.04915        -0.68557
C         64.77480        40.23332        -0.37281
C         63.51067        39.55408        -0.55809
C         64.84963        41.65279        -0.28876
C         63.56500        42.42483        -0.26523
C         64.64054        44.30473         1.16700
C         63.54193        43.87551         0.20907
C         64.79301        45.79751         1.16809
C         63.58204        46.47081         1.30406
C         64.84719        48.58704         1.43060
C         63.56533        47.89327         1.79472
C         64.87237        49.98972         1.83271
C         63.63108        50.75206         2.07375
C         65.05998        52.82574         2.17609
C         63.88336        52.05935         2.52510
C         65.16642        54.26193         2.35543
C         63.25303        55.31777         2.35164
C         64.77511        57.25538         1.81500
C         63.46022        56.65549         1.88539
C         64.79584        58.77770         1.81496
C         63.50851        59.45229         1.35048
C         64.76600        61.60722         0.94307
C         63.52290        60.79033         0.64987
C         64.83329        62.93667         0.30114
C         63.63399        63.57413        -0.05809
C         64.91951        65.36826        -1.12338
C         63.66777        64.80629        -0.77760
C         64.98494        66.52704        -2.10045
C         63.69484        67.29807        -2.16801
C         67.21798        33.36698        -2.33739
C         66.06187        34.14802        -2.37528
C         67.33456        36.19243        -1.63860
C         66.04706        35.49561        -2.00688
C         67.09906        37.12090        -0.39813
C         65.99111        38.10987        -0.75501
C         67.18763        40.01461         0.37755
C         65.96415        39.43162        -0.28930
C         67.27667        41.50878         0.19946
C         66.13458        42.27318        -0.14824
C         67.35448        44.36825         0.45453
C         66.38825        43.70950        -0.32578
C         67.27748        45.73519         0.87459
C         66.07391        46.43852         1.13771
C         67.30169        48.59204         1.15785
C         66.07815        47.89088         1.27965
C         67.27758        50.05352         0.84043
C         66.16247        50.74597         1.58629
C         67.30117        52.93910         1.10885
C         66.13761        52.20608         1.54205
C         67.18664        54.44341         0.89528
C         66.06357        55.07687         1.70208
C         67.24964        57.26032         1.52599
C         65.98583        56.54382         1.71257
C         67.29074        58.66021         1.38971
C         65.99271        59.34516         1.05518
C         67.31769        61.53380         0.88499
C         66.04167        60.85822         1.16936
C         67.31304        62.89300         0.46326
C         66.08333        63.54578         0.06985
C         67.39729        65.42218        -0.83583
C         66.13196        64.78691        -0.64634
C         67.51647        66.58317        -1.79001
C         66.21486        67.41561        -1.83470
C         67.59201        69.16680        -2.90826
C         66.39991        68.54520        -2.82349
C         69.57527        31.65494        -1.93847
C         69.61926        33.06473        -1.80842
C         68.45464        33.87708        -1.87733
C         69.67639        35.80318        -0.93335
C         68.51713        35.26417        -1.45136
C         69.70180        37.17967        -0.49293
C         68.45588        37.79926         0.10139
C         69.67943        39.99351         0.03243
C         68.47213        39.30298         0.03318
C         69.72061        41.41997         0.31638
C         68.51111        42.14146         0.44145
C         69.81282        44.28076         0.76050
C         68.51084        43.54670         1.00280
C         69.82719        45.68501         0.85606
C         68.56246        46.36983         1.22258
C         69.84989        48.59279         1.00707
C         68.57919        47.90876         1.30817
C         69.86608        50.06248         1.11270
C         68.55362        50.79730         1.17506
C         69.75209        52.95406         0.61496
C         68.49019        52.26091         0.91867
C         69.74422        54.49100         0.77734
C         68.49644        55.16403         1.15145
C         69.75710        57.26239         1.41068
C         68.50071        56.53208         1.41051
C         69.75534        58.68923         1.41399
C         68.50497        59.38994         1.30672
C         69.76035        61.53118         0.99429
C         68.51880        60.81585         1.05620
C         69.76081        62.93350         0.72094
C         68.53702        63.58929         0.35738
C         69.77868        65.65761        -0.22161
C         68.56586        64.90733        -0.22959
C         69.85084        66.94343        -0.83371
C         68.71482        67.47240        -1.52836
C         69.93109        69.55014        -2.00659
C         68.75274        68.72640        -2.12939
C         69.97411        70.87048        -2.52119
C         71.97111        31.47593        -1.48297
C         70.70864        30.87698        -1.80026
C         72.09619        32.82391        -1.38680
C         70.96353        33.75523        -1.72875
C         72.15852        35.87286        -1.11920
C         70.95777        34.99894        -0.82249
C         72.11493        37.20668        -0.95219
C         70.89926        37.88608        -0.51011
C         72.13319        39.98373         0.00133
C         70.93039        39.28505        -0.15439
C         72.15513        41.35938         0.25458
C         70.97443        42.10327         0.38715
C         72.19282        44.30472         0.33623
C         71.00199        43.56428         0.50929
C         72.20382        45.69028         0.41845
C         71.02648        46.42195         0.68484
C         72.22258        48.65256         0.52837
C         71.02656        47.89254         0.75389
C         72.24591        50.03952         0.54125
C         71.08778        50.81119         0.79045
C         72.21370        53.02176         0.70036
C         71.04695        52.24166         0.71042
C         72.20189        54.41551         0.87404
C         71.02574        55.15343         1.03556
C         72.20201        57.30274         1.47484
C         70.99951        56.56471         1.34033
C         72.19314        58.68450         1.52101
C         70.98623        59.41156         1.41701
C         72.17545        61.61227         1.26849
C         70.99042        60.85568         1.24723
C         72.16078        62.99504         1.05953
C         70.97450        63.67163         0.77272
C         72.19903        65.87189         0.37229
C         70.89805        65.18415         0.67708
C         72.23873        67.07587        -0.24534
C         71.05719        67.70147        -0.79632
C         72.24783        69.84649        -1.25478
C         71.09080        69.02284        -1.35217
C         72.26036        71.12762        -1.77198
C         71.11484        71.64593        -2.40855
O         65.05756        43.59305         2.06927
O         69.20483        50.47745         2.42212
O         48.41525        47.80865         2.24554
O         55.19562        43.66090         1.90417
O         66.50116        36.45309         0.65748
O         48.78950        51.70392         2.57538
O         61.19940        42.47196         1.83833
O         54.97758        61.45954         1.45069
O         49.33215        53.85203        -0.98825
O         61.43345        55.80550        -0.01515
O         65.89677        50.20995         2.90677
O         64.22481        54.83108         3.23131
O         68.61861        47.03486         2.50240
O         65.30741        61.48132         2.28232
O         58.27093        60.30990         2.31099
O         69.65589        53.83692        -0.55841
O         62.90192        52.66383         3.33713
O         62.73409        42.34894        -1.49490
O         60.67208        46.15054        -0.41697
O         61.62150        63.98473         1.22765
O         65.14886        65.93447        -3.43829
H         64.37731        65.35045        -3.59825
O         71.07724        34.53096         0.54581
H         70.92424        35.29713         1.13848
O         59.74942        62.52468         2.34890
H         58.84959        62.92332         2.42328
O         57.09458        62.82452         1.55379
H         56.23254        62.64896         2.00952
O         47.01922        49.83804         3.24257
H         47.56304        49.11588         3.62895
O         51.53897        55.03031        -1.47690
H         50.81240        54.50237        -1.88971
O         50.81620        56.63225         1.73787
H         50.64074        57.58355         1.91916
O         59.60733        44.48293         2.62802
H         59.87395        43.60956         2.99562
O         58.31470        46.91845        -0.81712
H         59.21485        47.00376        -1.21528
O         66.89773        54.64364        -0.52515
H         67.70099        54.33931        -1.01122
O         71.22506        34.25650        -3.08560
H         71.27010        33.47939        -3.68177
O         50.71826        59.68045         1.11384
H         51.42254        60.26712         1.46580
O         57.27499        48.56925         3.04756
H         56.36841        48.81276         3.33143
O         67.07691        50.23852        -0.59399
H         66.32120        49.67975        -0.87258
O         63.60364        47.80477         3.26722
H         64.49804        47.49860         3.53169
O         63.54616        37.49676         0.69619
H         64.46237        37.16063         0.87791
O         42.77467        49.00734         2.99738
H         42.04061        49.60187         3.25843
O         68.35720        43.40649         2.44143
H         67.45734        43.05269         2.61517
O         64.96420        59.13860         3.21380
H         64.09717        59.05730         3.66354
O         63.56738        44.70094        -0.99404
H         62.77886        44.43773        -1.52066
O         57.49003        61.38115        -1.76837
H         57.64565        61.78580        -2.64702
O         63.55167        60.49624        -0.78627
H         64.29203        59.85280        -0.93688
O         60.14187        50.39352        -0.32836
H         60.94628        49.88049        -0.55780
O         57.01472        39.60287         1.23745
H         56.21754        40.06039         1.58177
O         60.82207        59.67308         3.02001
H         59.96176        60.14476         3.16320
O         54.30286        46.01054         2.47864
H         54.67645        45.21110         2.92177
O         47.25269        55.24835         1.68515
H         46.39063        54.99878         2.07870
O         67.67236        37.11883        -2.71747
H         67.90337        36.58836        -3.50877
O         67.00779        39.79805         1.82317
H         67.44842        38.93348         2.03649
O         67.78014        65.99292        -3.09599
H         66.91502        65.69404        -3.46918
O         50.40067        54.02578         2.56909
H         50.21479        53.44150         3.33447
O         65.88528        44.37194        -1.37777
H         65.18551        43.85641        -1.83194
O         38.83677        51.11691        -2.34093
H         37.99347        50.61659        -2.37314
O         65.76879        59.03154        -0.36343
H         66.63655        58.99697        -0.81877
O         49.59178        49.15323        -0.99169
H         50.32805        49.70952        -1.32447
O         68.50922        37.50033         1.53160
H         67.74279        36.84941         1.66241
O         53.90047        48.50419        -1.23761
H         53.43725        47.80784        -1.76761
O         70.52166        65.62416         2.04188
H         70.45466        66.60258         2.02285
O         65.99405        67.99456        -0.52792
H         66.72948        68.61602        -0.34387
O         52.56291        46.21684        -1.81006
H         51.69774        45.95339        -2.19326
H         37.59950        48.74271         0.52891
H         35.56433        50.08241         0.27204
H         37.84400        53.54450        -0.93788
H         35.71767        52.54256        -0.19392
H         39.23609        47.89025         1.01801
H         39.49383        53.97773        -2.11433
H         41.24172        46.92511         1.97080
H         41.59533        55.22235        -2.23437
H         44.89467        44.79566         0.16138
H         42.83404        45.95678         0.83894
H         45.32221        57.33094        -2.55960
H         43.25383        56.03365        -2.49700
H         46.56763        43.98383        -0.49524
H         46.72297        58.70322        -1.92880
H         48.67653        42.91308        -1.06584
H         48.72118        60.07118        -1.59756
H         52.37553        40.66895        -0.81789
H         50.28662        41.91020        -0.95078
H         52.51732        62.30577        -1.44900
H         50.38029        61.13279        -1.44810
H         54.06188        40.00964        -1.48949
H         54.12822        63.55875        -0.79135
H         56.11468        38.71421        -1.48473
H         56.34144        64.30801        -1.45339
H         59.77002        36.46671        -1.55679
H         57.65571        37.59396        -1.03310
H         60.09321        65.85459        -2.62405
H         58.06804        64.51694        -2.45929
H         61.44314        35.89692        -2.49932
H         61.57812        67.26398        -2.05014
H         63.55059        34.75045        -2.87946
H         63.71352        68.31901        -2.57566
H         67.14859        32.32242        -2.66933
H         65.12793        33.65598        -2.68220
H         67.70898        70.01825        -3.59379
H         65.54646        68.90246        -3.41833
H         68.60878        31.15350        -2.09070
H         69.08826        71.29604        -3.01174
H         72.83219        30.82187        -1.28296
H         70.63658        29.78351        -1.87653
H         73.06620        33.26780        -1.11953
H         73.09841        35.38805        -1.42115
H         73.01636        37.80536        -1.14632
H         73.09226        39.45509        -0.07796
H         73.13185        41.85396         0.34301
H         73.13914        43.78789         0.12729
H         73.15995        46.21155         0.27799
H         73.16309        48.12722         0.31728
H         73.19595        50.54559         0.31899
H         73.19185        52.52121         0.68642
H         73.17450        54.91761         0.96647
H         73.16685        56.77955         1.49937
H         73.15336        59.21297         1.58434
H         73.13927        61.13024         1.47899
H         73.11220        63.53931         1.12896
H         73.13017        65.45397         0.78004
H         73.21013        67.57593        -0.36612
H         73.14715        69.47085        -0.74860
H         73.16259        71.74826        -1.68144
H         71.12812        72.66792        -2.81178
