         330
 CSIRO Nanostructure Databank - Neutral Graphene Oxide Data Set
C         30.32319        57.12482         0.27968
C         30.30954        58.49101         0.49238
C         29.11428        59.25653         0.59552
C         30.37220        61.35662         0.70072
C         29.16089        60.64225         0.72846
C         32.82974        52.83875         0.13073
C         32.79800        54.25160         0.08302
C         31.57474        54.97055         0.16290
C         32.78157        57.08205        -0.00273
C         31.55864        56.37598         0.15481
C         32.73678        58.58827        -0.09376
C         31.62689        59.18489         0.77353
C         32.82147        61.37064         0.42278
C         31.61086        60.69090         0.60129
C         35.35050        48.58519         0.07128
C         35.32894        50.00137         0.16297
C         34.09607        50.71443         0.19842
C         35.28025        52.87496         0.13241
C         34.05796        52.13499         0.16474
C         35.27577        54.27150        -0.08099
C         34.03007        54.97297        -0.06259
C         35.24590        57.09660        -0.37727
C         34.01153        56.39599        -0.15217
C         35.21163        58.59251        -0.61569
C         34.10668        59.19200         0.26298
C         35.27535        61.37780         0.13238
C         34.07079        60.70761         0.23713
C         37.80866        44.28731         0.30885
C         37.79316        45.67847         0.26130
C         36.58743        46.42915         0.14445
C         37.78231        48.58782         0.24590
C         36.56376        47.85707         0.14956
C         37.79018        50.00894         0.21350
C         36.56202        50.71743         0.22587
C         37.77487        52.91103        -0.03673
C         36.56247        52.20058         0.49851
C         37.75279        54.24931        -0.40367
C         36.50011        54.98595        -0.33053
C         37.66598        57.14477        -0.90928
C         36.44828        56.39702        -0.48760
C         37.72828        58.60677        -0.62165
C         36.52794        59.28567        -0.36061
C         37.75992        61.34598         0.04943
C         36.52712        60.67409        -0.05208
C         40.29308        39.97525         0.38610
C         40.24742        41.38961         0.24596
C         39.07975        42.08725         0.45863
C         40.32081        44.26322         0.23302
C         39.06535        43.56620         0.71230
C         40.26852        45.72512         0.22910
C         39.06295        46.39677         0.32366
C         40.28567        48.60184         0.20101
C         39.04387        47.87208         0.62849
C         40.25863        50.01295         0.06631
C         39.03905        50.71745         0.15664
C         40.19677        52.78021        -0.64959
C         39.08948        52.22721         0.24060
C         40.22687        54.29144        -0.67125
C         39.00297        54.94743        -0.72613
C         40.22948        57.15760        -1.21273
C         38.94319        56.38006        -1.10475
C         40.23140        58.63815        -0.90237
C         38.95823        59.29634        -0.53482
C         40.23625        61.36613        -0.06678
C         38.97807        60.67378        -0.17989
C         42.71208        35.74959         0.62608
C         42.71146        37.11732         0.81505
C         41.52395        37.88592         0.70768
C         42.76157        40.03344         0.54435
C         41.51936        39.28901         0.52311
C         42.78882        41.41384         0.29862
C         41.51267        42.08418        -0.21667
C         42.76976        44.30148        -0.29763
C         41.48312        43.57994         0.02760
C         42.73838        45.76630         0.06780
C         41.51486        46.45818         0.14027
C         42.73716        48.60234         0.02230
C         41.50456        47.88952         0.13388
C         42.73229        50.02787        -0.05847
C         41.50708        50.73465        -0.11217
C         42.71783        52.85771        -0.36144
C         41.51604        52.13183        -0.32980
C         42.71527        54.29769        -0.55519
C         41.49555        54.96397        -0.77919
C         42.79251        57.18720        -0.87537
C         41.52327        56.40059        -1.12259
C         42.70678        58.64821        -0.62796
C         41.51364        59.31418        -0.56897
C         42.69334        61.43903        -0.01599
C         41.46253        60.73667        -0.22906
C         45.15686        32.99157        -0.29801
C         43.97077        33.58405         0.06570
C         44.95993        35.80997        -0.38704
C         44.01902        35.00362         0.56557
C         45.00242        37.30233        -0.05905
C         44.06263        37.79651         1.05010
C         45.25436        40.06633         0.79143
C         43.96317        39.36077         1.16367
C         45.24191        41.55065         1.04284
C         43.98290        42.17604         0.42306
C         45.20993        44.29680         0.28754
C         44.01233        43.57925         0.20096
C         45.23531        45.78714         0.45046
C         43.94448        46.48250         0.12281
C         45.21678        48.61064        -0.00445
C         43.96045        47.89088         0.04890
C         45.20008        50.03978         0.01024
C         43.96347        50.74654        -0.07508
C         45.18015        52.88172        -0.06796
C         43.95187        52.16307        -0.17772
C         45.17107        54.32576        -0.11533
C         43.96437        55.02182        -0.40169
C         45.14438        57.15970        -0.04893
C         43.98696        56.45290        -0.39534
C         45.06871        58.63381         0.27957
C         44.02955        59.37545        -0.57259
C         45.14861        61.48086         0.16577
C         43.92929        60.81367        -0.10915
C         46.35460        33.73954        -0.40302
C         47.47548        35.90581        -0.64231
C         46.33887        35.16146        -0.41993
C         47.45823        37.38912        -0.93802
C         46.23589        38.08177        -0.33783
C         47.63673        40.09924         0.18039
C         46.36423        39.43456         0.27199
C         47.71078        41.50247         0.39827
C         46.50409        42.23412         0.59935
C         47.69999        44.32506         0.14388
C         46.49275        43.63379         0.38310
C         47.68165        45.69169        -0.39046
C         46.39750        46.45414        -0.24817
C         47.68185        48.61664        -0.09144
C         46.43110        47.92856        -0.14710
C         47.66925        50.03138         0.14337
C         46.41961        50.75185         0.12053
C         47.58600        52.91571         0.50889
C         46.37349        52.17301         0.15838
C         47.62123        54.36597         0.29855
C         46.39044        55.04783         0.07312
C         47.60771        57.19811         0.24595
C         46.37959        56.47605         0.11423
C         47.58898        58.64549         0.18537
C         46.40212        59.34241         0.17662
C         47.60618        61.49732         0.38410
C         46.38409        60.80086         0.20614
C         48.75406        38.02463        -0.51545
C         50.09462        40.05073        -0.05721
C         48.83824        39.36368        -0.12301
C         50.16026        41.44411         0.10796
C         48.95185        42.17534         0.29586
C         50.17293        44.25733        -0.35820
C         49.01261        43.67021         0.47674
C         50.21532        45.75259        -0.22082
C         48.96927        46.48158        -0.66076
C         50.13425        48.60378         0.02673
C         48.91682        47.91848        -0.17011
C         50.12752        50.02065         0.23355
C         48.89691        50.70854         0.29676
C         50.13477        52.91318         0.46568
C         48.89398        52.14712         0.59774
C         50.07912        54.30109         0.46968
C         48.84760        55.05069         0.40240
C         50.06545        57.23420         0.42432
C         48.84454        56.50052         0.35149
C         50.11272        58.64880         0.35406
C         48.87773        59.39145        -0.09074
C         50.06251        61.50270         0.56434
C         48.85158        60.83609         0.36128
C         51.41677        42.16780         0.13211
C         52.64996        44.30854         0.16416
C         51.46062        43.55150         0.01946
C         52.64906        45.71806         0.15741
C         51.38455        46.43873        -0.00198
C         52.59280        48.59185         0.21320
C         51.38955        47.89234         0.06335
C         52.60043        50.03000         0.30173
C         51.36894        50.74278         0.34640
C         52.61442        52.85199         0.39325
C         51.37929        52.16823         0.42279
C         52.62192        54.35231         0.22485
C         51.35563        55.03336         0.77659
C         52.62399        57.21581         0.64125
C         51.33901        56.49163         0.39319
C         52.53531        58.65921         0.97240
C         51.29595        59.36550         0.58809
C         52.54150        61.49487         0.70399
C         51.31550        60.80778         0.62092
C         53.84432        46.46185         0.26497
C         55.06567        48.60538         0.29350
C         53.85515        47.87487         0.26014
C         55.09375        50.01539         0.26655
C         53.83334        50.73986         0.29305
C         55.08764        52.89917        -0.03728
C         53.82776        52.15402         0.28979
C         55.13458        54.32674         0.40392
C         53.86879        54.96279         0.90084
C         55.08217        57.16088         0.85481
C         53.89725        56.47679         0.86058
C         55.16028        58.64057         1.22493
C         53.83090        59.40423         1.14426
C         55.00460        61.47851         0.48618
C         53.80771        60.84148         0.78645
C         56.31391        50.73743         0.25477
C         57.55950        52.87522         0.20416
C         56.36369        52.14697         0.19005
C         57.57818        54.30507         0.21020
C         56.32120        55.01892         0.42360
C         57.51072        57.17876         0.40213
C         56.33975        56.45881         0.63959
C         57.48787        58.63250         0.31313
C         56.30744        59.35178         0.55681
C         57.41306        61.44142        -0.05238
C         56.25127        60.76456         0.35384
C         58.75447        55.04169         0.10194
C         59.89959        57.19357        -0.19865
C         58.74492        56.47290         0.10628
C         59.88746        58.61689        -0.31707
C         58.66613        59.32918        -0.09152
C         59.82334        61.43005        -0.63052
C         58.63115        60.74839        -0.25347
C         61.04484        59.33433        -0.67891
C         61.00340        60.72797        -0.83074
O         38.06694        56.68765        -2.25048
O         52.15680        56.94666        -0.73087
O         46.72295        45.86144        -1.53585
O         42.42409        56.73197        -2.22867
O         55.01882        53.07329        -1.62584
O         45.06698        38.11349        -1.27524
O         48.13984        52.49630         1.81428
O         44.62455        37.37586         2.27935
O         53.00077        59.05594         2.31028
O         40.21688        58.12272        -2.29123
O         42.90361        44.28231        -1.77103
H         42.20990        44.87281        -2.13584
O         34.92084        58.80644        -2.03143
H         35.65158        58.40503        -2.54985
O         31.90724        58.92512         2.18597
H         31.18909        59.34063         2.70848
O         54.83102        51.77880        -2.20539
H         55.74736        51.41037        -2.25332
O         34.48372        58.78522         1.59923
H         33.70601        58.93374         2.19011
O         44.60312        34.85273         1.87013
H         44.64899        35.77742         2.28427
O         53.81784        54.56381         2.31430
H         54.57704        54.98961         2.76640
O         55.52528        58.61767         2.64312
H         54.67734        58.57131         3.14426
O         47.38802        37.52301        -2.39644
H         46.46550        37.79206        -2.61366
O         43.73133        39.60048         2.58690
H         44.09784        38.75500         3.00919
O         49.09674        46.57334        -2.12509
H         48.17114        46.58762        -2.47498
O         32.35668        58.93968        -1.44269
H         33.14204        58.80555        -2.02735
O         49.32245        43.96335         1.87676
H         48.61986        43.56050         2.43012
O         39.41582        52.54850         1.62457
H         38.60552        52.33699         2.15297
O         39.11632        43.68173         2.19416
H         39.90381        43.18113         2.49801
O         41.52995        41.91824        -1.66765
H         42.20883        42.54789        -2.01706
O         45.13111        41.82475         2.48054
H         44.55190        41.09841         2.84572
O         44.55668        59.37148        -1.92819
H         43.81690        59.54674        -2.54705
O         49.90476        43.94751        -1.75208
H         49.70275        44.79397        -2.22269
O         51.37984        55.07316         2.22937
H         51.47565        54.15668         2.56494
O         39.85346        52.37045        -2.00862
H         40.47859        52.80634        -2.62520
O         44.60773        58.72549         1.65891
H         45.29017        58.32195         2.23504
O         36.68034        52.30734         2.00621
H         36.26907        53.16066         2.26572
O         52.65999        54.56727        -1.19602
H         53.41380        54.04758        -1.57202
O         44.39000        35.66022        -1.70533
H         44.60321        36.48337        -2.20335
O         48.98148        59.44582        -1.55729
H         48.15546        59.85506        -1.89365
O         45.47301        46.01846         1.88110
H         44.79271        45.52583         2.38718
O         39.05955        47.93300         2.11993
H         39.79369        47.35712         2.42437
H         29.37187        56.57528         0.20264
H         28.14219        58.74721         0.51920
H         30.34926        62.45655         0.69231
H         28.21793        61.20427         0.78983
H         31.88436        52.27809         0.18073
H         30.63175        54.41430         0.26965
H         32.80658        62.47214         0.38176
H         34.39751        48.03952         0.00361
H         33.15089        50.15238         0.19242
H         35.30331        62.47568         0.21416
H         36.86677        43.72215         0.24283
H         35.63256        45.88647         0.07921
H         37.77535        62.41682         0.30085
H         39.35307        39.41930         0.52645
H         38.17286        41.52520         0.73688
H         40.21575        62.43398         0.19793
H         41.77036        35.23201         0.37589
H         40.55556        37.35925         0.70055
H         42.64395        62.49634         0.28778
H         45.19238        31.91068        -0.50249
H         43.05188        32.98583         0.16399
H         45.13413        62.56683         0.34800
H         47.30826        33.21412        -0.56545
H         48.44498        35.38781        -0.72477
H         47.57816        62.58497         0.55321
H         49.68068        37.47687        -0.74584
H         51.01757        39.48071        -0.23908
H         50.05605        62.58980         0.73950
H         52.34856        41.59861         0.27587
H         53.60234        43.77920         0.32600
H         52.53346        62.59110         0.60275
H         54.80173        45.92312         0.33494
H         56.01782        48.05333         0.31223
H         54.99429        62.54985         0.23432
H         57.25955        50.17603         0.31409
H         58.51839        52.33559         0.24283
H         57.37988        62.53020        -0.20689
H         59.71099        54.52136        -0.05820
H         60.83504        56.65216        -0.40656
H         59.79909        62.52178        -0.75853
H         61.98594        58.79171        -0.84857
H         61.91734        61.26737        -1.11705
