         732
 CSIRO Nanostructure Databank - Neutral Graphene Oxide Data Set
C         23.05052        24.49300         0.09268
C         21.83851        25.15338         0.31951
C         23.01241        27.27838         0.50352
C         21.81509        26.52472         0.51882
C         22.98646        28.71769         0.66254
C         21.77154        29.43356         0.81731
C         22.94431        31.57464         0.75937
C         21.75081        30.81018         0.88755
C         22.88324        33.03006         0.73469
C         21.69687        33.76066         0.59827
C         22.89370        35.91502         0.59680
C         21.68820        35.16013         0.58579
C         22.89955        37.41362         0.32139
C         21.67080        38.13861         0.80579
C         22.91903        40.24243         0.99520
C         21.69161        39.46291         1.05993
C         22.90813        41.67458         0.98090
C         21.69946        42.42162         1.04698
C         22.91779        44.51948         0.75957
C         21.70847        43.79455         0.96280
C         22.90849        45.98110         0.64568
C         21.70692        46.69504         0.60641
C         22.89384        48.80289         0.60687
C         21.70083        48.09591         0.57910
C         25.55131        23.11545        -0.43356
C         25.53227        24.49442        -0.15348
C         24.26446        25.19437         0.07449
C         25.49036        27.34344         0.35351
C         24.25315        26.60437         0.29226
C         25.45299        28.72450         0.56124
C         24.20672        29.45196         0.63304
C         25.42465        31.64693         0.28596
C         24.17177        30.87951         0.64637
C         25.44299        33.08010         0.79135
C         24.12215        33.80071         0.91009
C         25.37042        35.97906         0.31698
C         24.10486        35.25302         0.71156
C         25.35102        37.40560         0.80562
C         24.17276        38.10184         0.79751
C         25.36820        40.28848         1.01708
C         24.14654        39.55111         0.97116
C         25.37903        41.68358         0.87673
C         24.13615        42.39399         0.83770
C         25.39901        44.52082         0.31168
C         24.12534        43.81234         0.70635
C         25.39538        46.00018         0.60717
C         24.15065        46.69940         0.62299
C         25.38991        48.85354         0.61829
C         24.13501        48.12822         0.63016
C         25.42529        50.26472         0.63412
C         27.97688        23.09566        -0.57121
C         26.74464        22.43015        -0.63098
C         27.98290        24.47366        -0.26727
C         26.76714        25.19080        -0.07094
C         27.95763        27.32267         0.28450
C         26.76795        26.62840         0.20792
C         28.00280        28.75444         0.64506
C         26.70566        29.47157         0.83204
C         27.95669        31.71731         0.45300
C         26.70235        30.96498         0.72665
C         27.92361        33.13854         0.43819
C         26.68765        33.85627         0.56340
C         27.89363        35.97996         0.61768
C         26.66575        35.24660         0.58163
C         27.90771        37.38301         0.86034
C         26.62685        38.05249         1.16054
C         27.90619        40.27661         1.07644
C         26.62935        39.57073         1.25219
C         27.87816        41.69188         0.98959
C         26.64112        42.41482         0.87796
C         27.87853        44.54238         0.84524
C         26.65602        43.80813         0.74619
C         27.87197        45.99214         0.72900
C         26.61713        46.69986         0.63110
C         27.85503        48.85851         0.53752
C         26.62136        48.13913         0.60420
C         27.85287        50.27297         0.52914
C         26.63167        50.95443         0.60973
C         30.29523        20.53722        -2.12524
C         29.18404        21.16487        -1.71149
C         30.49321        23.13287        -0.96113
C         29.26162        22.28670        -0.68282
C         30.50106        24.54341        -0.70753
C         29.28856        25.15452        -0.10751
C         30.40301        27.43810        -0.34324
C         29.27386        26.66144         0.14147
C         30.29437        28.91373        -0.55609
C         29.22333        29.55741         0.29453
C         30.36902        31.74453        -0.01409
C         29.16527        31.04039         0.22467
C         30.37133        33.17275         0.09234
C         29.14161        33.86712         0.32293
C         30.35999        36.00602         0.51972
C         29.13362        35.28368         0.47885
C         30.36897        37.41525         0.75587
C         29.11725        38.10819         0.92333
C         30.36038        40.27381         1.09033
C         29.11935        39.55246         1.05142
C         30.33313        41.67655         1.14264
C         29.10928        42.40873         1.02135
C         30.35903        44.56628         1.14860
C         29.08809        43.83116         1.01415
C         30.36321        46.05783         0.96581
C         29.07550        46.73037         0.70522
C         30.34541        48.81810         0.28245
C         29.10025        48.13223         0.52238
C         30.34844        50.21968         0.11988
C         29.15806        51.03696         0.57300
C         30.23094        52.96968        -0.57864
C         29.10709        52.37272        -0.12205
C         32.99185        18.94753        -2.40309
C         32.92113        20.31933        -1.87033
C         31.62095        21.04881        -1.67853
C         32.84308        23.28633        -1.68374
C         31.62581        22.51855        -1.44856
C         32.89849        24.68651        -1.26553
C         31.65964        25.29917        -0.89197
C         32.88559        27.51474        -0.66208
C         31.58521        26.79779        -0.97837
C         32.85042        28.87579        -0.47192
C         31.62813        29.61044        -0.33127
C         32.84708        31.73859        -0.19965
C         31.61851        31.01338        -0.19338
C         32.82979        33.22136        -0.42856
C         31.57732        33.91466         0.02906
C         32.82524        36.02217         0.34908
C         31.58504        35.30102         0.29339
C         32.83341        37.40326         0.66771
C         31.60896        38.11021         0.85385
C         32.84055        40.21375         1.22336
C         31.63139        39.54827         1.08734
C         32.88876        41.67805         1.38282
C         31.58748        42.42643         1.33307
C         32.80815        44.50064         0.64588
C         31.62950        43.84894         0.97174
C         32.77345        45.91798         0.33160
C         31.61426        46.68173         0.49653
C         32.77439        48.71030        -0.25949
C         31.57968        48.06821         0.14711
C         32.70039        50.11067        -0.69014
C         31.50572        50.89740        -0.34573
C         32.74280        52.99136        -0.85738
C         31.50583        52.28179        -0.59865
C         32.75368        54.40675        -0.90232
C         35.44588        18.94851        -2.16418
C         34.18338        18.31021        -2.49379
C         35.41776        20.38518        -1.90025
C         34.20167        21.05998        -1.84214
C         35.40672        23.25587        -1.46672
C         34.19562        22.52466        -1.84042
C         35.36950        24.65387        -1.21848
C         34.13493        25.36358        -1.20966
C         35.38399        27.48148        -0.55266
C         34.15592        26.87664        -1.19518
C         35.36630        28.86267        -0.28209
C         34.14299        29.64886        -0.69210
C         35.28347        31.75213         0.05696
C         34.08525        31.06397        -0.17927
C         35.32764        33.18126         0.08122
C         34.09901        33.92899        -0.03618
C         35.31350        36.06253         0.16439
C         34.05767        35.30361         0.16660
C         35.29630        37.44085         0.67399
C         34.10563        38.07431         0.88611
C         35.38791        40.23266         1.09895
C         34.12853        39.46451         1.46905
C         35.40009        41.72095         1.35002
C         34.11226        42.41971         1.02144
C         35.32264        44.45255         0.38524
C         34.08390        43.76433         0.66405
C         35.30423        45.78538        -0.21503
C         33.95486        46.55558        -0.26308
C         35.24312        48.68974        -0.62860
C         33.99996        48.01654        -0.38967
C         35.27251        50.10705        -0.80944
C         34.00331        50.83730        -0.99585
C         35.21226        53.01113        -1.03834
C         33.98731        52.30792        -0.93727
C         35.17423        54.42701        -1.13590
C         33.94085        55.10030        -1.04929
C         37.89258        16.11374        -2.13471
C         36.71640        16.80042        -2.28143
C         37.93726        18.92951        -1.98063
C         36.64255        18.22802        -2.14130
C         37.93321        20.42667        -1.80522
C         36.63604        21.13924        -1.72206
C         37.91939        23.28469        -1.38143
C         36.62105        22.50614        -1.43888
C         37.76041        24.59074        -0.63465
C         36.58966        25.31091        -0.72110
C         37.71309        27.39238         0.15726
C         36.55091        26.72143        -0.31532
C         37.72868        28.80680         0.33816
C         36.52536        29.53095         0.13796
C         37.78529        31.69805         0.45249
C         36.46914        30.97485         0.57295
C         37.79551        33.09997         0.44883
C         36.56663        33.82974         0.28053
C         37.85429        35.99438         0.56763
C         36.61695        35.28796         0.19046
C         37.84577        37.37312         0.76771
C         36.57246        38.06723         1.18114
C         37.84130        40.26230         0.85296
C         36.57381        39.56509         0.98240
C         37.83514        41.69476         0.72813
C         36.62647        42.41181         0.82812
C         37.79835        44.50049         0.20816
C         36.57681        43.79619         0.51302
C         37.77496        45.89807        -0.09359
C         36.53888        46.58080        -0.26706
C         37.72974        48.70180        -0.64278
C         36.49578        47.97444        -0.53232
C         37.72602        50.11793        -0.81879
C         36.48198        50.82982        -0.85778
C         37.69018        52.96949        -0.99407
C         36.48068        52.28011        -0.99601
C         37.73770        54.41730        -1.29085
C         36.41215        55.18751        -1.39961
C         37.67948        57.27772        -1.12852
C         36.48558        56.63743        -1.19284
C         40.45892        14.62314        -2.02978
C         40.35340        15.96068        -1.34807
C         39.11898        16.76653        -1.74223
C         40.31538        18.81064        -1.03529
C         39.12326        18.12846        -1.59282
C         40.29519        20.28863        -0.81375
C         39.09671        21.09679        -1.17146
C         40.25184        23.02699        -0.17178
C         39.07647        22.42409        -0.91313
C         40.22995        24.52094        -0.17250
C         38.92941        25.14835         0.06944
C         40.21773        27.28393         0.76679
C         38.90557        26.59628         0.49673
C         40.20772        28.80999         0.87618
C         38.95152        29.53233         0.62943
C         40.25407        31.64922         0.70972
C         38.99497        30.94559         0.57317
C         40.26345        33.08910         0.69988
C         39.05169        33.81443         0.55695
C         40.28791        35.95691         0.74206
C         39.06330        35.24527         0.59003
C         40.28930        37.39384         0.79349
C         39.07115        38.09903         0.82063
C         40.29209        40.26110         0.65046
C         39.05452        39.55171         0.80273
C         40.29009        41.68046         0.47329
C         39.05968        42.39448         0.47578
C         40.26934        44.50523         0.02196
C         39.04042        43.80487         0.24851
C         40.25058        45.90971        -0.23709
C         39.00609        46.60344        -0.29720
C         40.20729        48.70002        -0.77318
C         38.97640        48.00266        -0.56295
C         40.18623        50.12238        -0.95119
C         38.96649        50.82139        -0.94711
C         40.14827        52.99196        -0.92842
C         38.96382        52.27886        -0.95197
C         40.14784        54.42956        -0.48079
C         38.94573        55.18834        -0.98556
C         40.18198        57.31411        -0.79071
C         38.94090        56.57174        -1.01436
C         40.19776        58.71881        -0.74067
C         42.89231        14.72562        -2.03407
C         41.67363        14.04287        -2.27075
C         42.90111        16.08535        -1.65035
C         41.64372        16.76340        -1.45485
C         42.83468        18.89050        -1.11865
C         41.62481        18.13046        -1.19982
C         42.81363        20.30245        -0.87177
C         41.58616        21.01111        -0.74874
C         42.78524        23.10737        -0.44848
C         41.57026        22.39469        -0.55966
C         42.79756        24.57015        -0.39036
C         41.43186        25.31850        -0.23841
C         42.70177        27.34051         0.47487
C         41.47859        26.66201         0.34905
C         42.71745        28.76922         0.69868
C         41.49207        29.51707         0.75016
C         42.76835        31.61754         1.13212
C         41.46660        30.92393         0.79695
C         42.75894        33.10877         0.88984
C         41.50512        33.81452         0.81635
C         42.74702        35.95129         1.19323
C         41.49101        35.22474         0.81027
C         42.75595        37.42993         0.87447
C         41.54263        38.11958         0.78958
C         42.75311        40.25647         0.50352
C         41.52479        39.55033         0.64693
C         42.75217        41.67417         0.31191
C         41.52090        42.38697         0.28295
C         42.74080        44.50241        -0.14476
C         41.50946        43.79979         0.05342
C         42.73837        45.90415        -0.43802
C         41.47243        46.61124        -0.50304
C         42.67062        48.67047        -1.32077
C         41.43366        47.98412        -0.80115
C         42.63162        50.16939        -1.14085
C         41.44364        50.84001        -1.07889
C         42.68940        53.04588        -0.96182
C         41.42092        52.32836        -1.36915
C         42.67567        54.45791        -0.73117
C         41.43983        55.17296        -0.68206
C         42.63361        57.33526        -0.49601
C         41.42071        56.59982        -0.66098
C         42.59562        58.72520        -0.40930
C         41.38541        59.41756        -0.54361
C         45.41162        16.16022        -1.47996
C         44.12432        16.82011        -1.51172
C         45.30528        18.97380        -1.18803
C         44.09103        18.23059        -1.28715
C         45.28598        20.33110        -0.82010
C         44.03348        21.01456        -0.69380
C         45.24575        23.12708        -0.19314
C         44.01997        22.41499        -0.44022
C         45.22803        24.52308         0.10170
C         44.00663        25.25730         0.05831
C         45.20880        27.33035         0.54653
C         43.96946        26.64004         0.33924
C         45.19409        28.76512         0.62743
C         43.96423        29.44835         0.65946
C         45.24479        31.64168         0.62046
C         43.92611        30.93584         0.41504
C         45.21146        33.04259         0.63766
C         43.98188        33.76503         0.77920
C         45.25167        35.96528         1.15465
C         43.98558        35.27076         0.61462
C         45.24137        37.42490         0.70494
C         43.99879        38.12409         0.72242
C         45.21202        40.23901         0.30819
C         43.98568        39.53919         0.51031
C         45.21832        41.67056         0.15816
C         43.98823        42.37765         0.15245
C         45.21069        44.49459        -0.18101
C         43.97762        43.79497        -0.05463
C         45.20697        45.89765        -0.45686
C         43.96220        46.59340        -0.61470
C         45.15949        48.70274        -1.03452
C         43.97661        48.01948        -0.90514
C         45.19594        50.16257        -1.32369
C         43.89215        50.91668        -1.35421
C         45.15109        53.04644        -0.93312
C         43.90623        52.36526        -1.05790
C         45.13893        54.46582        -0.78298
C         43.91144        55.15286        -0.64361
C         45.14098        57.30672        -0.81997
C         43.93482        56.60886        -0.24406
C         46.57817        16.84959        -1.44291
C         47.82395        19.02257        -1.05532
C         46.60212        18.34474        -1.63132
C         47.74729        20.31930        -0.52218
C         46.50368        21.03830        -0.53287
C         47.69371        23.09662         0.17513
C         46.47954        22.41529        -0.19434
C         47.66325        24.46220         0.48428
C         46.45043        25.20411         0.40344
C         47.69382        27.34454         0.72154
C         46.44202        26.62402         0.57465
C         47.69110        28.76168         0.70901
C         46.44826        29.48710         0.62783
C         47.77262        31.60393         0.36513
C         46.44951        30.90068         0.58843
C         47.74843        33.08169         0.66028
C         46.46003        33.79627         0.26069
C         47.69108        35.91754         0.46602
C         46.44643        35.21409         0.69313
C         47.69499        37.36506         0.19182
C         46.41680        38.10467         0.34604
C         47.65515        40.22186        -0.17177
C         46.41178        39.50761         0.17975
C         47.69862        41.68501        -0.02560
C         46.45722        42.37691         0.03675
C         47.69031        44.49690        -0.18103
C         46.45231        43.79728        -0.09147
C         47.67476        45.90537        -0.42316
C         46.44319        46.56944        -0.60778
C         47.69372        48.72110        -0.78619
C         46.46102        47.95577        -1.17977
C         47.60227        50.17894        -0.57767
C         46.40957        50.92246        -0.96207
C         47.63969        53.07200        -0.74784
C         46.40048        52.32391        -0.87904
C         47.61026        54.51014        -0.83614
C         46.38081        55.19877        -0.84351
C         46.29757        56.63534        -1.01319
C         50.24301        18.98502        -0.75820
C         49.11506        18.43403        -1.27824
C         50.14461        20.12174         0.22885
C         48.93544        20.98408        -0.04198
C         50.16877        23.03660         0.58194
C         48.92698        22.33772         0.26272
C         50.16643        24.41564         0.81412
C         48.86890        25.13258         1.09071
C         50.15510        27.29756         0.99002
C         48.92355        26.62643         0.85865
C         50.17537        28.73853         1.06725
C         48.93180        29.47782         0.93716
C         50.07737        31.59979         1.52193
C         48.92278        30.87265         0.99813
C         50.10836        33.12951         1.62441
C         48.86729        33.75783         1.01664
C         50.18817        35.97138         0.94888
C         48.88883        35.23622         1.01433
C         50.17194        37.37573         0.43658
C         48.99915        38.06409         0.24224
C         50.20671        40.27250         0.01743
C         48.98409        39.48684        -0.15146
C         50.20094        41.66495         0.00583
C         48.93181        42.37452        -0.02918
C         50.16707        44.52920        -0.04706
C         48.93247        43.80300        -0.07471
C         50.14254        45.94198        -0.30595
C         48.92181        46.61496        -0.52933
C         50.18630        48.79616        -0.92911
C         48.89086        48.05796        -0.67319
C         50.18872        50.25908        -0.57152
C         48.91754        50.97124        -0.42317
C         50.12796        53.12101        -0.74288
C         48.88369        52.41714        -0.65533
C         50.06250        54.54928        -0.85806
C         48.86399        55.20745        -0.87919
C         52.63009        20.21335         0.49475
C         51.42625        20.90131         0.39395
C         52.62334        22.99342         0.90508
C         51.40691        22.30886         0.59171
C         52.59492        24.39704         1.13131
C         51.39195        25.11593         1.02890
C         52.62880        27.26448         1.15366
C         51.40316        26.57291         1.09128
C         52.65217        28.70576         1.17475
C         51.39930        29.41479         1.17374
C         52.64406        31.62866         1.33996
C         51.40327        30.84784         1.49685
C         52.65940        33.01361         1.14141
C         51.40877        33.78669         1.12144
C         52.62887        35.85212         0.42231
C         51.41404        35.14050         0.86980
C         52.61746        37.34020         0.39040
C         51.44728        38.04776         0.29551
C         52.73963        40.26792         0.04857
C         51.45734        39.50204        -0.01563
C         52.71628        41.74198         0.21780
C         51.43431        42.42549         0.14455
C         52.64896        44.59098         0.44654
C         51.39152        43.82736         0.20857
C         52.65874        46.01585         0.00755
C         51.38547        46.68385        -0.36713
C         52.69310        48.76798        -0.50831
C         51.42460        48.04976        -0.51313
C         52.65237        50.25389        -0.41093
C         51.36683        50.97673        -0.59890
C         52.62781        53.09125        -0.86098
C         51.36448        52.41729        -0.66863
C         53.82629        20.88081         0.79216
C         55.08984        22.94205         1.39432
C         53.84886        22.25692         1.02000
C         55.10376        24.35029         1.53431
C         53.81195        25.09787         1.64522
C         55.10974        27.23366         1.43192
C         53.88394        26.56331         1.33400
C         55.12181        28.66330         1.27542
C         53.87181        29.38817         1.29858
C         55.20807        31.59614         1.33014
C         53.89222        30.85903         1.46801
C         55.16114        33.01937         0.91874
C         53.91951        33.68600         0.91626
C         55.20583        35.82249         0.50654
C         53.92977        35.09398         0.48698
C         55.18244        37.27383         0.70814
C         53.89904        38.05178         0.57446
C         55.14828        40.18861         0.44264
C         53.96713        39.51977         0.38043
C         55.17175        41.65607         0.56374
C         53.91245        42.39860         0.41188
C         55.22218        44.56268         0.10348
C         53.98501        43.87508         0.71412
C         55.20484        45.92851        -0.23363
C         53.90109        46.59971        -0.62986
C         55.16048        48.79642        -0.98406
C         53.89264        48.10648        -0.54607
C         55.20552        50.27777        -0.70825
C         53.94213        51.02702        -0.50392
C         53.82827        52.45159        -0.86172
C         57.37226        22.85284         2.21381
C         56.26186        22.21143         1.68084
C         57.36313        24.24911         2.32848
C         56.28531        25.03094         1.89099
C         57.63979        27.09094         1.24340
C         56.37647        26.55320         1.97972
C         57.53061        28.50860         0.69297
C         56.34424        29.31572         1.04104
C         57.63756        31.48599         0.50793
C         56.44945        30.78585         1.08736
C         57.52159        32.90939         0.07502
C         56.33772        33.68216         0.46108
C         57.67662        35.78762         0.15694
C         56.39965        35.10899         0.34585
C         57.74267        37.26201         0.33417
C         56.48127        38.01357         0.59979
C         57.66766        40.17726        -0.12427
C         56.40890        39.45120         0.19917
C         57.70825        41.64710        -0.03681
C         56.51274        42.40194         0.35941
C         57.67389        44.51269        -0.23466
C         56.45439        43.85225         0.07054
C         57.67298        45.93069        -0.39457
C         56.42935        46.64251        -0.43715
C         57.65599        48.77547        -0.70300
C         56.43576        48.05865        -0.64193
C         57.63362        50.18833        -0.79892
C         56.42752        50.91455        -0.72432
C         60.66486        25.04201         2.52769
C         59.35966        25.50908         2.31329
C         60.16699        27.24091         0.84300
C         59.04895        26.59447         1.46212
C         60.04471        28.52582         0.15516
C         58.74379        29.20095         0.12340
C         60.04752        31.41360        -0.26307
C         58.75989        30.70947        -0.09994
C         60.09526        32.86586        -0.17298
C         58.82808        33.62818        -0.25045
C         60.13248        35.77423        -0.18783
C         58.85424        35.10039        -0.09150
C         60.17239        37.25022        -0.56767
C         58.91863        38.02007        -0.17122
C         60.15838        40.09872        -0.73608
C         58.91755        39.37991        -0.24331
C         60.13225        41.60618        -0.52470
C         58.91270        42.33126        -0.31107
C         60.14014        44.46578        -0.50705
C         58.91429        43.77426        -0.32910
C         60.15156        45.92198        -0.53966
C         58.91571        46.63598        -0.53226
C         60.15528        48.73508        -0.69372
C         58.92215        48.05845        -0.63417
C         61.72374        25.62672         1.84185
C         61.46759        26.71281         1.01458
C         61.14786        29.22323        -0.32194
C         61.15705        30.62714        -0.52483
C         61.26934        33.58825        -0.09039
C         61.28288        35.01397        -0.17571
C         61.37016        38.04412        -0.07334
C         61.37000        39.38127        -0.17226
C         61.31140        42.32676        -0.71527
C         61.32617        43.72213        -0.68343
C         61.35869        46.64083        -0.59801
C         61.35716        48.03268        -0.66388
O         48.27480        39.74242        -1.41899
O         50.64317        31.04427         2.75713
O         32.21227        20.34081        -0.52004
O         57.56624        31.29135         1.95057
O         37.13174        54.73784        -2.59023
O         53.64880        25.49637         3.03249
O         34.48414        45.85117        -1.43302
O         42.14892        25.20475        -1.53681
O         47.75670        36.38504        -0.96942
O         26.60227        38.72714         2.46056
O         52.58111        45.70534         1.43139
O         53.19718        35.29636        -0.82369
O         57.26964        27.30988        -0.14331
O         56.00411        42.05417         1.70045
O         30.41935        45.47948         2.31703
O         44.57139        50.54573        -2.62336
O         24.90116        33.30556         2.11421
O         33.16175        50.30161        -2.07423
O         33.45677        23.05778        -2.99442
O         36.08173        35.85037        -1.07396
O         57.92996        33.13460        -1.30710
O         34.23205        29.84025        -2.10093
O         48.12989        50.55449         0.75091
O         40.21198        27.93114         2.07131
O         56.73923        39.69218        -1.22947
O         54.66743        31.31863         2.65320
O         58.40700        29.80871        -1.17873
O         57.38187        37.71753         1.70668
O         53.32847        50.71806         0.81588
O         38.64088        25.53821         1.48039
O         32.25077        42.16052         2.63525
O         26.63326        30.32104         2.02944
O         29.05544        29.03034         1.63848
O         49.43087        35.86645         2.20889
O         38.23322        19.85310        -3.12696
O         29.55673        25.67908         1.22858
O         40.07355        19.36817         0.32280
O         58.40362        24.83211         3.05473
O         54.43401        37.67046         1.91880
O         52.22024        39.80856        -1.25775
O         29.45077        21.65056         0.61098
H         30.28803        21.13757         0.57250
O         60.23007        37.21695        -2.02029
H         60.29322        38.15739        -2.33268
O         43.65070        31.07545        -1.01467
H         44.40693        30.69531        -1.50939
O         53.74780        46.27344        -2.05371
H         54.26068        46.95271        -2.55789
O         44.10742        56.62752         1.22335
H         44.95292        56.17001         1.41967
O         39.97567        54.35839         0.99834
H         40.11948        55.26312         1.35156
O         54.21583        43.93778         2.14602
H         53.87290        44.81036         2.45074
O         50.26132        48.82597        -2.41257
H         50.05341        47.92399        -2.73978
O         42.64836        48.47806        -2.78357
H         43.35793        49.06546        -3.14421
O         40.05970        22.64903         1.24150
H         40.01951        21.66795         1.28615
O         34.17338        27.25370        -2.61925
H         34.28100        28.26732        -2.63689
O         25.43141        44.43937        -1.17124
H         24.64821        44.92832        -1.50380
O         46.68708        18.56100        -3.09390
H         45.89653        18.13814        -3.49243
O         40.16984        15.66647         0.08188
H         40.96867        15.18636         0.38660
O         42.75963        35.83513         2.66247
H         41.97662        36.31845         3.00253
O         46.43382        33.84126        -1.24231
H         46.97410        34.62426        -1.51458
O         32.78394        33.29502        -1.91237
H         33.39941        32.61288        -2.26448
O         48.66848        25.00074         2.54984
H         49.48643        25.31844         2.99017
O         29.90459        29.17400        -1.94233
H         30.49402        28.61042        -2.50716
O         55.08788        48.69002        -2.48984
H         55.93840        49.03924        -2.83703
O         31.48420        27.05948        -2.44410
H         32.42355        27.06559        -2.79807
O         41.39375        52.42062        -2.84155
H         42.15694        51.90682        -3.18474
O         46.60516        47.76827        -2.64766
H         45.80491        47.29334        -2.96031
O         60.19866        39.93074        -2.19868
H         59.34126        40.25032        -2.55398
O         43.95920        35.52422        -0.81140
H         44.65631        34.96669        -1.23055
O         56.46222        26.92771         3.36735
H         55.64685        26.58904         3.80266
O         47.99338        31.53015        -1.09250
H         47.38756        32.20059        -1.49819
O         36.54653        37.86553         2.63792
H         35.73858        38.33597         2.98036
O         25.49370        31.70178        -1.16854
H         24.66328        32.09647        -1.50805
O         35.46503        41.81316         2.85152
H         35.16426        42.71347         3.10437
O         49.90662        19.48563         1.53912
H         49.04362        19.02263         1.48534
O         45.35233        35.97103         2.60634
H         44.44264        36.01870         2.99027
O         42.97786        31.42535         2.55919
H         42.24194        31.85678         3.04098
O         50.02534        33.46469         3.02896
H         50.45396        32.72740         3.52512
O         34.21014        39.31634         2.93607
H         34.43913        40.21445         3.28728
O         22.90718        37.52098        -1.15225
H         22.86312        38.47569        -1.37543
O         36.21781        30.91446         2.03685
H         36.93822        30.37734         2.43300
O         29.38769        51.32956         2.00287
H         30.21176        51.85814         2.06109
O         38.23664        23.65985        -2.76199
H         38.22076        22.84435        -3.30777
O         25.31148        36.05079        -1.15485
H         24.48559        36.54772        -1.39174
H         23.02732        23.40660        -0.05893
H         20.90163        24.57992         0.33639
H         20.84951        27.01722         0.69017
H         20.81734        28.89497         0.88358
H         20.78857        31.32130         1.02515
H         20.73718        33.23657         0.48878
H         20.72284        35.67159         0.47629
H         20.71626        37.59688         0.86092
H         20.75569        39.96713         1.33923
H         20.73916        41.90527         1.17629
H         20.75316        44.32950         1.04002
H         20.74355        46.16918         0.59918
H         22.85702        49.89974         0.59874
H         20.74389        48.63448         0.54802
H         24.61557        22.54518        -0.48950
H         24.49445        50.84415         0.68336
H         26.70974        21.34622        -0.80390
H         26.61048        52.05105         0.66222
H         30.24218        19.67572        -2.80799
H         28.20056        20.80624        -2.04958
H         30.16177        53.97885        -1.00836
H         28.15693        52.92343        -0.15835
H         32.05863        18.41989        -2.64639
H         31.81612        54.97249        -0.83214
H         34.19895        17.27114        -2.85066
H         33.90773        56.19541        -1.11980
H         37.87550        15.02116        -2.24191
H         35.80068        16.23102        -2.49163
H         37.67337        58.37118        -1.03268
H         35.55905        57.22178        -1.10691
H         39.54612        14.03409        -2.19265
H         39.26858        59.29266        -0.84641
H         43.83537        14.19934        -2.22942
H         41.71607        13.01975        -2.67252
H         43.51469        59.29457        -0.21669
H         41.37241        60.51444        -0.48572
H         45.44044        15.06217        -1.42655
H         45.11306        58.39310        -0.98368
H         47.53158        16.30362        -1.39378
H         47.18665        57.18596        -1.35162
H         51.22030        18.52421        -0.96096
H         49.18510        17.54737        -1.92510
H         50.98774        55.13887        -0.89923
H         48.86779        56.30424        -0.93356
H         52.65230        19.12135         0.37634
H         52.61860        54.16525        -1.09272
H         54.74528        20.28513         0.86378
H         54.73803        53.01116        -1.12223
H         58.24403        22.28154         2.55722
H         56.28211        21.11898         1.57884
H         58.57103        50.75660        -0.82383
H         56.48260        52.00848        -0.62800
H         60.82312        24.20175         3.21518
H         60.19131        49.82974        -0.76087
H         62.74886        25.25373         1.96687
H         62.31938        27.18363         0.51075
H         62.11688        28.71858        -0.42756
H         62.11720        31.09965        -0.77600
H         62.23433        33.06400        -0.04172
H         62.26200        35.50656        -0.25976
H         62.24921        37.51909         0.33017
H         62.23965        39.96660         0.16175
H         62.25147        41.79135        -0.90798
H         62.28361        44.23419        -0.84255
H         62.32246        46.11593        -0.58220
H         62.30971        48.57875        -0.70144
