         277
 CSIRO Nanostructure Databank - Neutral Graphene Oxide Data Set
C         30.64459        32.03120        -0.62288
C         30.84265        33.09940         0.12841
C         30.45821        36.23686         0.64164
C         30.63572        37.47027         0.79354
C         30.47618        40.49330         1.52507
C         30.51803        41.63068         0.99087
C         32.83421        29.25301        -0.10898
C         31.75293        29.71614        -0.52192
C         32.86363        31.66438         1.31641
C         31.07797        30.86467         0.00246
C         32.78588        33.14706         1.49143
C         31.58530        33.87888         0.92441
C         32.81473        36.08168         0.90399
C         31.48891        35.33743         1.33197
C         32.93669        37.50595         1.51000
C         31.58999        38.29810         1.42800
C         32.92742        40.16567        -0.34620
C         31.26642        39.47522         2.13016
C         32.87992        41.54246        -0.54567
C         30.99194        42.57205         0.08107
C         32.65025        44.31622        -0.16341
C         31.58570        43.83185         0.31529
C         35.50746        27.92183        -0.76833
C         35.29857        29.09314        -0.00021
C         34.11266        29.66680         0.39286
C         35.34631        31.64402         1.36316
C         34.04273        30.97700         1.07350
C         35.38256        33.16337         1.49198
C         34.09281        33.92559         1.51458
C         35.30080        35.99704         0.84714
C         34.11988        35.34609         1.13998
C         35.26649        37.44152         0.54379
C         34.12020        38.15786         0.74904
C         35.30001        40.30115         0.09141
C         34.03550        39.63879         0.52458
C         35.26215        41.68960        -0.00494
C         34.01313        42.37987        -0.22662
C         35.17677        44.57211        -0.38855
C         33.99887        43.83100        -0.27728
C         35.41334        45.96187        -0.55792
C         37.83397        27.91315        -1.36164
C         36.43546        27.27968        -1.28694
C         37.88154        28.90889        -0.18812
C         36.65752        29.86261         0.00291
C         37.83955        31.76785         1.12142
C         36.64523        30.82781         1.22702
C         37.79748        33.13386         0.91052
C         36.59511        33.90111         1.05300
C         37.79404        36.00624         0.47192
C         36.56176        35.27008         0.77427
C         37.78443        37.35181         0.15391
C         36.46247        38.00758        -0.20926
C         37.79441        40.29143        -0.18753
C         36.51150        39.53070        -0.21682
C         37.82953        41.70863         0.34369
C         36.51100        42.46512         0.18977
C         37.81471        44.61441        -0.38139
C         36.51143        43.93368        -0.08273
C         37.82641        46.02558        -0.63541
C         36.50006        46.57314        -0.64503
C         40.22219        25.64398        -3.05313
C         39.17707        26.14227        -2.61025
C         40.39946        27.52748        -1.04327
C         38.94602        26.84989        -1.28666
C         40.35294        28.24562         0.34624
C         39.01991        28.94346         0.54242
C         40.28088        31.63402         0.59822
C         39.11057        31.11506         1.09416
C         40.31544        33.07494         0.44681
C         39.00176        33.81012         0.29252
C         40.27435        35.96131         0.56338
C         39.06480        35.29571         0.54874
C         40.34846        37.39600         0.45132
C         39.08681        38.07280         0.04204
C         40.29809        40.35179         0.46079
C         39.10642        39.57519        -0.05483
C         40.33335        41.88911         0.33823
C         39.05286        42.39172        -0.34734
C         40.27691        44.55249        -0.66947
C         39.02761        43.90629        -0.40959
C         40.27535        45.94994        -0.89024
C         39.04633        46.67297        -0.86646
C         40.22830        48.71880        -1.57209
C         39.24224        48.04812        -1.23592
C         42.83249        25.30292        -2.93634
C         41.57085        25.79814        -2.56325
C         42.86230        26.75290        -0.72543
C         41.60516        26.57616        -1.35869
C         42.73666        28.76889         0.24046
C         41.50864        29.31632         0.37932
C         42.79438        31.52054         0.24605
C         41.54674        30.81466         0.76788
C         42.76341        33.02466        -0.00402
C         41.50166        33.74434         0.42719
C         42.79204        35.93681         0.47102
C         41.53790        35.19209         0.86439
C         42.82413        37.41706         0.54015
C         41.56067        38.10039         0.44125
C         42.81836        40.32085         0.07395
C         41.58722        39.59503         0.49795
C         42.76840        41.61892        -0.42282
C         41.56753        42.42830        -0.36867
C         42.77118        44.46282        -1.08533
C         41.53249        43.77614        -0.73051
C         42.79549        45.86794        -1.24621
C         41.56974        46.73682        -1.00919
C         42.83719        48.65773        -1.89758
C         41.47862        47.99863        -2.03397
C         43.93286        25.66176        -2.41539
C         45.39581        27.20386        -0.89868
C         44.13910        26.41774        -1.24467
C         45.20277        28.59434        -0.14093
C         43.93418        29.41793        -0.40543
C         45.23319        31.64014        -0.30504
C         43.96245        30.87117        -0.00310
C         45.27920        32.91693         0.53103
C         44.00645        33.68509         0.59277
C         45.33750        35.91868         0.98106
C         44.06918        35.18881         0.54581
C         45.32850        37.36763         0.44919
C         44.04473        38.05928         0.35330
C         45.27672        40.05958        -0.68383
C         44.00895        39.45151        -0.16808
C         45.26880        41.54274        -0.83830
C         43.94316        42.19528        -1.22213
C         45.20489        44.38066        -1.38650
C         43.99340        43.71917        -1.18693
C         45.23235        45.80617        -1.56791
C         44.02999        46.52295        -1.51205
C         43.82519        47.91543        -1.79431
C         47.55354        27.26423         0.13108
C         46.52264        26.56012        -0.06959
C         47.78492        28.64810         0.29332
C         46.46238        29.34898         0.21230
C         47.84979        31.51301         0.05175
C         46.52969        30.81514        -0.11557
C         47.91063        33.03702         0.21841
C         46.59981        33.65127         0.82261
C         47.83497        35.82979         0.76245
C         46.53131        35.14220         0.36428
C         47.82985        37.25458         0.28028
C         46.52382        37.96484         0.10707
C         47.86127        40.10144        -0.44538
C         46.60286        39.24585        -0.72498
C         47.71410        41.59743        -0.44822
C         46.42354        42.24388        -0.81296
C         47.71753        44.41130        -0.98788
C         46.51434        43.59432        -1.48904
C         47.53060        45.70299        -1.38686
C         46.53195        46.37437        -1.84483
C         51.58077        28.93890        -2.43052
C         49.02349        29.34256         0.36936
C         50.30224        31.52063        -0.24657
C         49.09932        30.74681         0.32574
C         50.45032        32.82587         0.55918
C         49.16355        33.52316         1.07647
C         50.38302        35.94853         1.25077
C         49.12667        35.11110         1.09638
C         50.23219        37.38474         1.23303
C         49.09239        38.03006         0.50271
C         49.27987        40.42079         1.55315
C         49.12013        39.54361         0.29825
C         49.65238        41.86401         1.08142
C         48.69202        42.44315         0.28635
C         49.81374        44.60247         0.51585
C         48.46140        43.96722         0.23173
C         51.62237        29.70012        -1.42861
C         52.52958        31.04987         0.50357
C         51.55512        30.60081        -0.40088
C         52.67043        32.09342         1.18970
C         51.58635        33.05612         1.30839
C         52.53004        36.29818         2.26998
C         51.53339        35.37930         1.86530
C         52.27585        37.53394         2.27394
C         51.15392        38.26041         1.87810
C         51.61380        40.69162         2.45437
C         50.78097        39.56827         2.50506
C         51.85741        41.95304         2.27574
C         50.81472        42.61318         1.56614
C         50.67595        43.96952         1.16987
O         51.73839        34.06389         2.20651
O         33.29017        33.68416         2.74601
O         39.36154        38.78678        -1.24858
O         37.13897        40.09545        -1.46342
O         36.41785        43.41834         1.31749
O         40.85608        39.97433         1.75470
O         48.19501        35.61548         2.15608
O         47.37617        31.06120        -1.29204
O         48.35254        40.39676         2.43846
O         35.46609        32.30608         2.67455
O         48.80946        37.41102        -0.79873
O         44.33057        39.44371        -1.63860
O         31.62990        41.98561        -1.10447
O         45.55964        28.80471         1.24750
O         48.28844        40.86399        -1.59795
O         44.45082        32.92800         1.74815
O         39.13652        29.81572         1.63897
O         42.88495        27.40388         0.49469
O         36.09992        37.57955        -1.62348
O         31.60331        31.04773         1.35752
O         40.49590        27.26596         1.37480
H         40.33858        27.69775         2.23988
O         38.05350        41.54094         1.75334
H         37.85997        42.40838         2.18064
O         47.61557        44.26001         1.35348
H         48.06131        43.97053         2.17833
O         46.71732        43.30979        -2.89277
H         45.91156        42.86255        -3.23254
O         48.11119        33.59282        -1.09200
H         48.75150        33.00758        -1.57960
O         45.95978        27.58448        -2.14482
H         45.89724        26.83118        -2.77035
O         46.27172        35.28328        -1.03342
H         47.00737        34.87166        -1.54486
O         41.75827        30.77991         2.21815
H         40.98021        30.32637         2.61264
O         42.77087        33.13053        -1.44845
H         42.99496        34.06498        -1.67929
O         40.52125        28.59406        -1.98450
H         40.61918        28.22325        -2.88664
O         43.69686        41.87319        -2.61920
H         43.71824        40.88631        -2.68614
O         38.63515        25.94776        -0.26863
H         39.34754        25.28190        -0.18329
O         41.63447        35.14923         2.32839
H         40.90502        34.59378         2.67549
O         37.30988        37.42245        -2.39005
H         37.68463        38.34605        -2.41289
O         41.30584        47.54631        -3.33648
H         41.29820        48.30359        -3.95625
O         33.31648        37.38454         2.87929
H         33.19970        38.26033         3.31021
O         39.13717        41.92546        -1.70963
H         38.27674        42.04870        -2.16188
O         45.15059        32.02658        -1.69228
H         46.07232        32.02700        -2.05216
O         41.76518        47.36508         0.28180
H         41.82160        46.66629         0.96569
O         46.72633        33.62255         2.24864
H         45.81040        33.58462         2.62560
O         45.36401        35.91801         2.41067
H         46.29910        35.96171         2.71484
O         43.68024        29.41923        -1.83764
H         43.94962        30.29904        -2.19282
O         36.61498        30.70780        -1.15578
H         36.88376        30.17377        -1.94131
O         32.71370        36.15875        -0.53611
H         33.48976        36.64016        -0.89558
O         36.71415        30.00934         2.39987
H         36.47952        30.57620         3.16753
O         46.76617        38.79004        -2.07915
H         45.90388        38.41634        -2.36904
O         50.27827        39.81057        -0.50289
H         50.10818        39.46010        -1.40430
O         49.12543        33.07021         2.42535
H         48.45662        33.60608         2.91381
O         40.39627        42.46734         1.65752
H         40.71903        41.75762         2.26364
O         33.76336        40.21556         1.86500
H         34.62761        40.42004         2.28375
O         37.90555        28.63043        -2.58408
H         37.94931        27.97926        -3.31887
O         43.50380        35.56122        -0.75981
O         50.14927        28.61479         0.53330
H         49.93853        27.65979         0.47615
O         31.25934        35.43509         2.71671
H         31.87871        34.82022         3.17963
O         32.04121        39.36743        -0.95531
H         31.39537        39.94230        -1.42848
O         38.74891        33.71177        -1.15558
H         37.99546        34.29995        -1.37849
O         50.19487        39.33852         3.75812
H         49.29464        39.77944         3.73376
O         31.78419        39.72040         3.36142
H         31.61477        40.64844         3.62031
O         50.01147        31.86018        -1.62157
H         49.97125        31.02705        -2.14601
