         424
 CSIRO Nanostructure Databank - Neutral Graphene Oxide Data Set
C          1.32720         1.97514        -0.16606
C          1.28588         3.37313        -0.22229
C          2.52364         1.30751         0.06292
C          2.45031         4.14352        -0.03847
C          1.27040         6.30559        -0.48620
C          1.26319         7.68481        -0.59024
C          2.43201         5.59949        -0.09848
C          2.39971         8.45834        -0.23998
C          1.35379        10.58937        -0.98192
C          1.35136        11.98866        -1.12763
C          2.39078         9.90628        -0.36159
C          2.47301        12.77671        -0.79307
C          1.39055        14.91684        -1.53668
C          1.44725        16.28091        -1.78156
C          2.51768        14.20187        -1.06624
C          2.64124        17.00732        -1.57413
C          2.71947        18.41708        -1.82776
C          3.72234         2.03753         0.24896
C          3.68093         3.46695         0.20865
C          4.95766         1.36535         0.47831
C          4.89031         4.21084         0.39946
C          3.60184         6.34853         0.22520
C          3.55169         7.77102         0.22181
C          4.84943         5.63851         0.45250
C          4.71521         8.56023         0.68954
C          3.47628        10.72611         0.29757
C          3.61547        12.13091        -0.23915
C          4.79245         9.99950         0.42234
C          4.82941        12.82732        -0.06808
C          3.73262        14.91298        -0.83878
C          3.79524        16.31802        -1.10163
C          4.89606        14.22825        -0.37395
C          5.00897        17.03452        -0.89287
C          3.88372        19.10855        -1.62600
C          5.06675        18.44522        -1.15362
C          6.15223         2.06888         0.62908
C          6.12363         3.51308         0.56586
C          7.40061         1.39182         0.83963
C          7.33410         4.23836         0.68335
C          6.06020         6.34209         0.64524
C          6.04511         7.80798         0.87989
C          7.28188         5.64712         0.69355
C          7.26492         8.59184         0.73862
C          5.99167        10.69636         0.52957
C          6.03477        12.13049         0.30875
C          7.25531         9.98317         0.68820
C          7.26023        12.82465         0.36591
C          6.11500        14.94253        -0.18839
C          6.16728        16.35091        -0.43462
C          7.29832        14.24979         0.20000
C          7.37863        17.07023        -0.20183
C          6.26635        19.14154        -0.95378
C          7.43159        18.49260        -0.47854
C          8.60474         2.07462         0.98322
C          8.60283         3.53389         0.90051
C          9.86880         1.40320         1.06086
C          9.78425         4.22485         0.98065
C          8.53151         6.43262         0.98732
C          8.50270         7.83843         0.35171
C          9.80484         5.66430         0.55651
C          9.76929         8.56219         0.67932
C          8.49393        10.72413         0.67532
C          8.50134        12.10831         0.55231
C          9.81822        10.02824         0.92685
C          9.75359        12.85354         0.63460
C          8.50542        14.97471         0.43823
C          8.51037        16.39261         0.29691
C          9.71531        14.25395         0.73849
C          9.70325        17.18999         0.64775
C          8.64304        19.20366        -0.32691
C          9.80805        18.58516         0.17046
C         11.08897         2.08257         1.12001
C         11.08689         3.57147         1.37389
C         12.33630         1.42102         1.03618
C         12.32471         4.28423         0.86359
C         11.06108         6.41659         1.01851
C         11.00042         7.81581         0.44035
C         12.31953         5.66475         0.68035
C         12.28388         8.54713         0.18476
C         10.94702        10.71109         0.10725
C         11.00671        12.16178         0.50764
C         12.27922        10.00710         0.24083
C         12.23560        12.81103         0.56939
C         10.95605        14.97081         1.07151
C         10.99066        16.46476         1.00677
C         12.27632        14.22845         0.95602
C         12.26801        17.14684         0.76626
C         11.03884        19.24418         0.28347
C         12.25909        18.55621         0.55579
C         13.56415         2.11290         0.93944
C         13.55410         3.56786         0.80996
C         14.79723         1.42240         0.84628
C         14.75285         4.27412         0.61740
C         13.52751         6.38918         0.44238
C         13.54421         7.81416         0.33395
C         14.75666         5.67355         0.42001
C         14.75245         8.53710         0.27308
C         13.48377        10.68918         0.27766
C         13.48928        12.13343         0.36988
C         14.74327         9.97588         0.23613
C         14.70813        12.83804         0.34987
C         13.51559        14.98841         0.70388
C         13.49107        16.41398         0.68988
C         14.70958        14.28296         0.45977
C         14.73104        17.11944         0.58087
C         13.50254        19.24672         0.48294
C         14.72233        18.56703         0.53204
C         16.03234         2.08664         0.71459
C         16.07990         3.59371         0.83494
C         17.25703         1.41918         0.60590
C         17.15765         4.19496        -0.06364
C         15.99564         6.39896         0.23145
C         15.99075         7.82426         0.19979
C         17.20652         5.69951         0.06643
C         17.20843         8.54218         0.01867
C         15.95654        10.69213         0.14396
C         15.95467        12.13690         0.17343
C         17.19418         9.97607         0.00595
C         17.17008        12.84973         0.03837
C         15.94468        14.99851         0.37605
C         15.94377        16.40593         0.50108
C         17.18054        14.29074         0.13398
C         17.24951        17.12350         0.72800
C         15.96313        19.26504         0.42660
C         17.18998        18.60033         0.43890
C         18.49578         2.11796         0.45821
C         18.48648         3.53954         0.20227
C         19.72835         1.43329         0.49337
C         19.65675         4.26766         0.05410
C         18.42212         6.39686        -0.12017
C         18.42639         7.82930        -0.15913
C         19.65616         5.67673        -0.20284
C         19.64515         8.53653        -0.40954
C         18.41144        10.68221        -0.16291
C         18.40719        12.11961        -0.16165
C         19.63050         9.96398        -0.39779
C         19.62105        12.80537        -0.33163
C         18.37419        15.02716        -0.05775
C         18.44187        16.43916         0.09718
C         19.59397        14.29585        -0.56429
C         19.64163        17.18247        -0.09820
C         18.40689        19.28666         0.33603
C         19.66232        18.63302         0.16707
C         20.96267         2.10407         0.33128
C         20.98520         3.61550         0.32753
C         22.18050         1.43284         0.31100
C         22.05463         4.19256        -0.57096
C         20.87787         6.37695        -0.53878
C         20.85302         7.82878        -0.69156
C         22.04740         5.65693        -0.75177
C         22.02191         8.54231        -1.06820
C         20.85090        10.66592        -0.60574
C         20.85192        12.10507        -0.49377
C         22.03003         9.95834        -0.97441
C         22.09749        12.79970        -0.49253
C         20.83942        14.97766        -0.06530
C         20.85807        16.44150        -0.28451
C         22.12728        14.22590        -0.14207
C         22.08938        17.00072        -0.58013
C         20.81525        19.42365         0.39071
C         22.13131        19.06749        -0.02971
C         23.41416         2.07616        -0.05741
C         23.34617         3.44020        -0.66879
C         24.61317         1.42070        -0.04044
C         24.59683         4.24184        -0.76566
C         23.23647         6.24419        -1.47485
C         23.24897         7.78998        -1.48058
C         24.54182         5.61185        -0.99051
C         24.56569         8.54151        -1.49462
C         23.25827        10.75251        -1.21906
C         23.31289        12.14927        -0.75126
C         24.58527        10.03844        -1.40385
C         24.56632        12.82829        -0.69384
C         23.38474        14.96177        -0.31134
C         23.36218        16.37118        -0.36206
C         24.59351        14.24998        -0.47498
C         24.56713        17.13716        -0.24536
C         23.38721        19.30724         0.49415
C         24.57572        18.54668         0.11886
C         25.81783         2.02983        -0.71049
C         25.83567         3.53802        -0.56982
C         27.09717         1.38087        -0.28546
C         27.04582         4.21609        -0.48883
C         25.75178         6.41687        -0.78390
C         25.83570         7.84480        -1.18983
C         27.05310         5.68693        -0.46721
C         27.01949         8.53924        -1.10842
C         25.83943        10.72499        -1.05628
C         25.81289        12.12790        -0.84127
C         27.05950         9.99737        -1.05483
C         27.04876        12.83969        -0.70909
C         25.81268        14.98199        -0.47367
C         25.79939        16.40811        -0.28950
C         27.04595        14.26126        -0.55678
C         27.04067        17.09420        -0.14661
C         25.81178        19.16780         0.32305
C         27.04980        18.49580         0.14410
C         28.29425         2.08457        -0.21476
C         28.29797         3.52536        -0.38541
C         29.53276         1.42358         0.02285
C         29.51293         4.24043        -0.37235
C         28.33117         6.37755        -0.69923
C         28.32457         7.78189        -1.24593
C         29.51715         5.67909        -0.58933
C         29.56582         8.54897        -0.88469
C         28.28899        10.69083        -0.90005
C         28.28909        12.11932        -0.74374
C         29.55053         9.96682        -0.87146
C         29.51378        12.83169        -0.59860
C         28.27643        14.96989        -0.45638
C         28.27502        16.38541        -0.24929
C         29.50881        14.25497        -0.46717
C         29.50525        17.08799        -0.13509
C         28.28209        19.16771         0.32282
C         29.51030        18.49674         0.18869
C         30.74894         2.12728         0.00324
C         30.74765         3.54849        -0.21991
C         31.99040         1.45856         0.20261
C         31.98864         4.25709        -0.26497
C         30.78657         6.38763        -0.64029
C         30.77523         7.82767        -0.74615
C         31.99281         5.69799        -0.46751
C         32.01320         8.53225        -0.68435
C         30.77711        10.67426        -0.78579
C         30.77907        12.12249        -0.66427
C         32.01240         9.95475        -0.72730
C         31.97620        12.80978        -0.56952
C         30.72799        14.98958        -0.35121
C         30.73260        16.37615        -0.23407
C         31.98798        14.22646        -0.05912
C         32.01045        17.17259        -0.37812
C         30.74456        19.15123         0.47378
C         31.98489        18.50492         0.33524
C         33.19654         2.15524         0.15432
C         33.19153         3.56496        -0.09531
C         34.46020         1.50489         0.43446
C         34.51123         4.29229        -0.01107
C         33.24917         6.40371        -0.52023
C         33.25134         7.82216        -0.64095
C         34.48690         5.71097        -0.51503
C         34.49478         8.51866        -0.65722
C         33.25941        10.63508        -0.66715
C         33.28129        12.12180        -0.88605
C         34.48163         9.94928        -0.62661
C         34.43731        12.75969        -0.11625
C         33.25946        15.00071        -0.30220
C         33.27861        16.38041        -0.15761
C         34.55557        14.24416        -0.48283
C         34.48470        17.09494         0.10401
C         33.19335        19.11474         0.68306
C         34.45773        18.44793         0.55551
C         35.65891         2.13368         0.18972
C         35.63647         3.42459        -0.60566
C         36.89918         1.58933         0.62089
C         36.94464         4.20005        -0.63035
C         35.69971         6.38256        -0.76185
C         35.72452         7.80152        -0.76921
C         36.87786         5.56293        -1.30906
C         36.98250         8.51558        -0.77355
C         35.74487        10.66273        -0.53067
C         35.75523        12.04878        -0.32841
C         36.97982         9.93172        -0.58008
C         36.96981        12.75695        -0.10618
C         35.68588        14.91385         0.30513
C         35.80950        16.39531        -0.06708
C         36.98624        14.16076         0.16450
C         36.96713        17.00704         0.67648
C         35.65587        19.07982         0.96814
C         36.90028        18.38192         1.06147
C         38.07854         2.30058         0.48808
C         38.09866         3.62814        -0.13745
C         39.30093         1.73688         0.99019
C         39.37066         4.30278        -0.23389
C         38.24441         6.38849        -1.46611
C         38.22298         7.82196        -0.91111
C         39.55062         5.56378        -1.06558
C         39.42630         8.53869        -0.81899
C         38.20539        10.63818        -0.40228
C         38.20740        12.04206        -0.13689
C         39.44381         9.92731        -0.47002
C         39.42574        12.72625         0.15542
C         38.17068        14.83626         0.45978
C         38.14416        16.25692         0.80207
C         39.41414        14.11717         0.49134
C         39.33756        16.88923         1.26907
C         38.06740        18.98631         1.57142
C         39.28343        18.26807         1.65827
C         40.47999         2.41249         0.88474
C         40.52481         3.70097         0.24762
C         41.82088         4.35840         0.09886
C         40.60719         6.44748        -0.35573
C         40.72927         7.81343        -1.07121
C         41.89552         5.66035        -0.22903
C         41.94708         8.57805        -0.64137
C         40.66416        10.61123        -0.19506
C         40.65931        11.99941         0.15100
C         41.90272         9.86858        -0.25394
C         41.84516        12.70354         0.49916
C         40.61111        14.77782         0.88530
C         40.57292        16.17205         1.31499
C         41.81673        14.03575         0.86667
C         41.71770        16.84300         1.77626
C         40.47214        18.89617         2.12720
C         41.65912        18.18695         2.18319
O         22.40142         3.46191        -1.79267
O          5.20369         8.17994         2.01974
O         11.46294         7.96727        -0.96683
O         26.25460         6.28485         0.61828
O         11.65105        14.47751         2.26534
O         23.88500         8.17891        -2.74758
O         10.14446        17.06229         2.04426
O         22.12417        18.24901        -1.18811
O         23.88272        10.63452        -2.54206
O         21.42050        14.50257         1.17146
O         35.26989         3.03254        -1.94756
H         35.53032         3.76410        -2.55786
O         34.89469        14.26792        -1.88089
H         35.19087        15.17921        -2.11777
O         16.47735         3.89447         2.20630
H         15.78796         3.53501         2.80315
O         11.06981         6.57123         2.45459
H         11.16566         5.67015         2.85098
O         25.67241         1.75743        -2.15806
H         24.83475         2.17984        -2.44976
O         40.15298         6.75185         0.98234
H         40.14588         5.91654         1.49649
O          9.89017         5.61457        -0.89724
H          9.20326         4.99373        -1.22080
O         10.18383        10.21348         2.33167
H          9.62955         9.61046         2.87176
O         33.49923        12.27960        -2.31809
H         32.74525        11.85845        -2.78071
O         34.82916         4.41543         1.41504
H         34.10497         4.92070         1.84108
O         36.42346         5.28327        -2.67018
H         36.73533         6.03619        -3.23032
O         38.38962         6.65014        -2.89360
H         38.87334         5.85460        -3.24594
O          8.53503         6.66653         2.41166
H          8.45322         5.80407         2.86837
O         40.15096         5.07767        -2.29848
H         40.82411         5.74943        -2.57661
O         40.88621         7.59207        -2.50984
H         39.98509         7.65257        -2.91533
O         19.62587        14.48321        -2.01982
H         18.81708        14.07307        -2.39246
O         21.38144         4.02781         1.67717
H         20.67436         3.74408         2.29442
O         11.16219         3.73977         2.85319
H         10.51199         3.11865         3.24749
O         17.48404        17.03830         2.18337
H         17.53740        16.08682         2.41655
O         34.12875        12.58247         1.29350
H         34.74032        13.16921         1.80493
O         23.05488         5.82295        -2.85568
H         23.48622         6.50919        -3.41846
O         32.06843        17.51819        -1.81263
H         31.28914        18.08234        -2.00578
O         10.58510        10.64675        -1.29599
H         10.70061         9.70514        -1.57455
O         28.41823         7.59150        -2.71819
H         29.29805         7.19930        -2.90728
O          3.01751        10.89020         1.70111
H          3.75482        11.29853         2.20356
O         31.94016        14.08903         1.41738
H         32.65418        13.43818         1.65710
O         35.33313        14.88519         1.72081
H         36.03232        15.37214         2.20938
O          8.43187         7.74204        -1.10416
H          9.25151         7.27514        -1.40663
O         16.77912         3.89059        -1.43772
H         17.49128         4.21490        -2.02782
O         36.15903        16.52333        -1.48863
H         36.16291        17.48061        -1.70169
H          0.39958         1.40277        -0.30710
H          0.31890         3.86105        -0.40283
H          2.54921         0.20906         0.10008
H          0.35370         5.75804        -0.74252
H          0.33907         8.18050        -0.91534
H          0.50154        10.03714        -1.40247
H          0.47543        12.45316        -1.59963
H          0.44040        14.39241        -1.70622
H          0.55257        16.80898        -2.14214
H          1.82089        18.93752        -2.19047
H          4.96330         0.26603         0.52547
H          3.92947        20.18932        -1.82472
H          7.39895         0.29150         0.86113
H          6.30663        20.22022        -1.16727
H          9.87713         0.30583         0.97009
H          8.67900        20.26518        -0.61442
H         12.34728         0.32062         0.99392
H         11.09376        20.31278         0.02627
H         14.78448         0.32105         0.84889
H         13.49803        20.34028         0.36324
H         17.27970         0.31922         0.65343
H         15.94494        20.35846         0.29840
H         19.72905         0.33795         0.60391
H         18.39346        20.38801         0.34683
H         22.20089         0.34696         0.49331
H         20.67102        20.37621         0.92465
H         24.67902         0.39530         0.35431
H         23.51279        20.07580         1.27156
H         27.10351         0.28814        -0.15281
H         25.83148        20.22385         0.63149
H         29.53817         0.33493         0.18040
H         28.27667        20.23496         0.59006
H         31.98991         0.37490         0.39093
H         30.71577        20.18218         0.85918
H         34.44524         0.50924         0.90444
H         33.17827        20.12847         1.11260
H         36.90905         0.61149         1.12689
H         35.61155        20.12191         1.31641
H         39.26396         0.74279         1.45883
H         38.04114        20.03966         1.88735
H         41.41608         1.97656         1.26168
H         42.72908         3.76608         0.28544
H         42.86989         6.16449        -0.28874
H         42.92213         8.07880        -0.73192
H         42.84394        10.37257         0.00393
H         42.81375        12.18704         0.50188
H         42.76262        14.51862         1.14674
H         42.68411        16.32417         1.82865
H         40.43716        19.95048         2.43680
H         42.57422        18.67779         2.54349
