         280
 CSIRO Nanostructure Databank - Neutral Graphene Oxide Data Set
C         30.53250        31.54818         0.03098
C         30.57574        32.76218         0.41355
C         30.88761        35.63940         1.53561
C         31.09971        36.74306         2.07091
C         31.57526        39.64226         3.37547
C         31.58955        40.79839         3.82230
C         32.69501        28.87804        -1.42345
C         31.64269        29.40931        -1.01131
C         32.69734        31.62861        -1.08122
C         31.42814        30.75364        -0.64201
C         32.81662        32.98837        -0.40117
C         31.72305        33.60500         0.28354
C         33.00470        35.71923         0.40858
C         31.85383        34.93598         0.72996
C         32.94475        37.23775         0.62657
C         32.13822        37.69229         1.86034
C         33.58897        39.70045         2.12086
C         32.36946        38.88846         2.45465
C         33.64364        41.15627         2.52272
C         32.35701        41.88988         3.11450
C         33.85979        43.69421         3.32968
C         32.92987        43.06056         3.89311
C         35.25344        27.34464        -0.70122
C         35.24991        28.71375        -1.17795
C         34.04699        29.44157        -1.72016
C         35.21498        31.62383        -1.08959
C         33.97726        30.80226        -0.83516
C         35.20589        32.98357        -1.03205
C         34.01702        33.70415        -0.56985
C         35.31084        35.85266        -0.58489
C         34.09923        35.09819        -0.23805
C         35.15750        37.38871        -0.62268
C         34.28249        37.94812         0.49730
C         35.54808        40.11853         0.46954
C         34.48664        39.17715         1.04788
C         35.80283        41.38577         1.27045
C         34.76552        42.00721         1.98440
C         35.89574        44.19132         1.71497
C         34.88591        43.35407         2.42423
C         36.28255        45.53471         2.25190
C         37.63466        27.30832        -0.09563
C         36.36125        26.82606        -0.36781
C         37.54918        28.85253        -0.09649
C         36.40933        29.42225        -0.93596
C         37.70979        31.61087        -0.90059
C         36.49148        30.86536        -1.39996
C         37.72873        33.01528        -0.98997
C         36.45275        33.73266        -1.44754
C         37.66724        35.95168        -1.44209
C         36.41009        35.22223        -1.11887
C         37.69034        37.44779        -1.32461
C         36.48530        38.15257        -0.78774
C         37.98795        40.15557        -0.32119
C         36.81526        39.30800         0.15806
C         38.26544        41.38123         0.43092
C         37.14215        41.99811         1.25119
C         38.37228        44.25544         1.07898
C         37.30981        43.41122         1.80402
C         38.73057        45.59602         1.77737
C         37.36430        46.11021         2.15029
C         39.97644        24.65046         1.04897
C         38.96515        25.29960         0.74185
C         40.08798        27.29691         0.17739
C         38.83352        26.64918         0.25179
C         40.12590        28.68037        -0.34699
C         38.88066        29.49012        -0.40564
C         40.16715        31.61388        -0.49650
C         38.89991        30.85868        -0.63095
C         40.20172        33.05531        -0.84236
C         38.94171        33.74107        -0.89993
C         40.21836        35.94039        -0.86610
C         38.95906        35.18818        -1.20993
C         40.23509        37.39613        -1.17148
C         38.98309        38.15190        -1.30543
C         40.30972        40.25984        -1.24186
C         39.06743        39.51821        -0.96946
C         40.34787        41.62977        -1.01375
C         39.55302        42.17998         0.14964
C         40.58076        44.51453        -0.27207
C         39.38033        43.69653         0.12739
C         40.70919        45.82480         0.10700
C         39.49897        46.50951         0.84159
C         41.01018        48.40578         1.07731
C         40.09957        47.70212         1.53094
C         42.62423        24.52595         1.10271
C         41.31801        25.19195         1.21910
C         42.68570        27.19371        -0.00243
C         41.35478        26.66655         0.61953
C         42.74356        28.72131         0.00659
C         41.45804        29.38490        -0.37288
C         42.73797        31.52095        -0.69460
C         41.44286        30.87871        -0.30421
C         42.70329        32.95498        -1.11502
C         41.41984        33.69682        -1.03814
C         42.77829        35.84852        -1.14768
C         41.52458        35.14864        -0.65672
C         42.76257        37.28316        -1.52957
C         41.48744        38.07041        -1.60613
C         42.70419        40.21946        -1.86869
C         41.50604        39.55871        -1.64343
C         42.68162        41.67911        -2.07736
C         41.40200        42.44732        -1.61612
C         42.65871        44.72168        -1.82193
C         41.33119        43.98832        -1.49692
C         42.69230        46.17131        -1.41754
C         41.82516        46.66319        -0.38874
C         42.92951        48.74253        -0.61927
C         41.97846        48.01920         0.09577
C         43.63794        25.25620         1.06741
C         45.08920        27.28963         0.76933
C         43.94135        26.57780         0.63011
C         45.24901        28.68191         0.11202
C         43.91267        29.41553         0.05940
C         45.30594        31.43130        -0.70066
C         43.97966        30.95022        -0.02128
C         45.31775        32.96951        -0.94508
C         44.01642        33.71190        -1.13984
C         45.29400        35.94138        -1.25753
C         43.96796        35.19977        -1.12318
C         45.15785        37.42311        -0.95024
C         43.99664        38.05413        -1.32225
C         45.24951        40.23967        -1.51094
C         43.98090        39.48019        -1.72887
C         45.23770        41.72737        -1.77512
C         43.97390        42.44737        -2.14574
C         45.31023        44.61810        -2.22212
C         43.95615        43.96654        -2.18974
C         45.43372        45.94474        -2.65039
C         43.57328        47.04952        -2.09992
C         43.66134        48.35442        -1.57620
C         47.44464        27.48820         1.28564
C         46.35559        26.88395         1.29274
C         47.69170        28.86802         0.97885
C         46.33892        29.57348         0.76906
C         47.63058        31.71815         0.36330
C         46.49026        30.93160         0.10911
C         47.64926        33.11057         0.17450
C         46.62557        33.77376        -0.72419
C         47.28313        36.05902         0.44038
C         46.31405        35.24035        -0.36001
C         47.28973        37.55657         0.28512
C         46.28201        38.17906        -0.41766
C         47.44620        40.42295        -0.25697
C         46.13123        39.70158        -0.39001
C         47.70242        41.64458        -1.10694
C         46.39171        42.52922        -1.19314
C         47.83174        44.60139        -1.55357
C         46.59772        43.80015        -2.06242
C         47.62547        45.87640        -1.98755
C         46.66852        46.63292        -2.40068
C         50.11571        29.15351         1.57340
C         48.84820        29.56420         1.05422
C         49.81307        31.81737         1.68728
C         48.98095        31.04752         0.64057
C         49.87089        33.30764         1.42835
C         48.87641        33.95414         0.47310
C         49.69245        36.28859         1.20434
C         48.46656        35.35465         1.12716
C         49.39009        37.66813         1.83106
C         48.26951        38.38220         1.05860
C         49.60893        40.67820         1.20250
C         48.35688        39.89975         0.74492
C         49.81451        42.00943         0.43198
C         48.83225        42.53196        -0.56796
C         50.20408        44.51443        -0.62398
C         49.11578        43.82953        -1.39968
C         51.09713        29.70158         2.10498
C         51.94704        32.07100         2.89620
C         51.36966        31.15371         1.84565
C         51.79215        33.29959         2.78168
C         50.80461        34.09717         2.07995
C         51.58694        36.46577         2.60434
C         50.81596        35.52731         2.02037
C         51.76254        37.75543         2.43023
C         50.71588        38.49368         1.93557
C         51.93796        40.75544         1.68293
C         50.88292        39.78578         1.20587
C         52.02161        41.97726         1.50904
C         51.28557        42.63151         0.37641
C         51.03024        44.10635         0.19677
O         40.14375        36.88672         0.25853
O         48.72629        42.90605         0.84593
O         47.61517        39.35748         1.93151
O         40.91930        28.83316        -1.62228
O         34.24579        40.13625         3.37088
O         44.34055        46.62692        -3.17074
O         44.90310        41.96457        -3.17392
O         45.07190        39.54925        -2.76108
O         46.02162        35.52624         1.03175
O         44.83411        33.27334        -2.28789
O         41.65690        42.09483        -3.01218
O         36.77968        38.26215        -2.20043
O         38.11994        44.26230        -0.35864
O         40.78984        31.41323         0.87434
O         43.02735        44.46513        -3.20367
O         42.75588        31.84660        -2.10454
O         38.15323        41.10439         1.91877
O         41.35507        26.35030         2.05879
O         42.06770        37.47770        -2.81915
O         38.45081        35.46198        -2.58452
O         32.58960        31.85933        -2.48133
H         31.87608        32.50766        -2.65238
O         40.46662        41.97681         1.27342
H         39.98432        41.46079         1.96205
O         49.63982        31.09431        -0.63263
H         50.61335        31.01534        -0.49594
O         34.15917        29.70865        -3.09202
H         35.08148        30.02745        -3.28235
O         32.14207        37.74212        -0.47771
H         32.71212        37.72775        -1.28783
O         37.22335        38.63189         1.37408
H         37.58421        39.32150         1.98417
O         50.20893        36.58189        -0.08612
H         50.26524        35.73486        -0.60435
O         49.15105        31.60704         2.93699
H         49.63191        32.10916         3.63040
O         39.52132        45.31757         2.90897
H         38.99332        44.73881         3.50783
O         52.07060        31.29946         0.64427
H         52.93510        30.84403         0.71028
O         37.23580        29.22342         1.28417
H         36.33731        28.88503         1.48996
O         38.60908        46.94368        -0.16518
H         39.08196        47.52952        -0.79111
O         48.04355        41.17518        -2.41731
H         48.23645        41.95836        -2.99275
O         45.39115        30.81026        -1.98845
H         44.88475        31.37751        -2.61833
O         34.00162        30.35639         0.53276
H         34.07654        31.13663         1.12099
O         43.98835        31.51038         1.30775
H         43.17300        31.23740         1.78046
O         31.60208        42.36255         2.03502
H         30.81918        42.84839         2.36631
O         48.08821        35.04690         2.47264
H         47.10519        35.03473         2.51939
O         51.16556        39.47498        -0.15736
H         51.75711        38.69340        -0.19549
O         49.40200        41.03850         2.57146
H         48.80987        41.82176         2.59391
O         40.44113        44.38021        -2.57170
H         40.84460        44.04231        -3.40460
O         45.84766        29.82945         2.11232
H         46.50835        30.36993         2.59593
O         51.86031        42.17344        -0.82052
H         52.79794        42.44992        -0.86187
O         49.60070        43.44827        -2.68208
H         49.53931        44.21283        -3.29192
O         49.57794        34.16931        -0.78133
H         48.96458        33.93513        -1.52710
O         47.29317        33.80597        -2.01642
H         46.61154        34.06648        -2.68685
O         41.73884        35.06243         0.78877
H         41.32770        35.86264         1.19578
O         45.31300        39.99714         0.79606
H         45.87920        39.78851         1.58270
O         36.60946        30.83888        -2.86588
H         36.60608        31.79046        -3.16052
O         34.39958        37.59878        -1.84921
H         35.05538        37.85570        -2.54589
O         45.76368        35.87242        -2.62504
H         45.14803        36.38445        -3.19237
O         48.92039        37.46084         3.16341
H         48.59698        38.32426         3.50183
O         35.03852        40.57718        -0.81113
H         34.27204        41.16940        -0.65967
O         37.65833        43.32285         3.19462
H         37.90842        42.39275         3.39275
O         47.00837        43.41177        -3.40276
H         46.24481        42.92638        -3.81231
O         45.66977        28.39818        -1.22756
H         44.95801        27.90461        -1.68831
O         42.68957        26.79400        -1.39112
H         42.00883        27.33914        -1.86039
O         45.99167        42.92888         0.12306
H         46.79303        43.14671         0.65345
O         35.49730        44.28678         0.36248
H         36.15843        44.81754        -0.13502
O         36.48297        33.63220        -2.91223
H         37.23852        34.20008        -3.21399
