         344
 CSIRO Nanostructure Databank - Neutral Graphene Oxide Data Set
C          1.28933         3.54370         1.63716
C          0.10044         4.18550         1.57172
C          1.10847         6.30770         0.85114
C          0.01925         5.60717         1.30416
C          1.12053         7.74424         0.63188
C         -0.08224         8.50110         0.72755
C          1.11750        10.60271         0.36381
C         -0.08996         9.86758         0.57875
C          1.09564        12.00242         0.18231
C         -0.10731        12.77690         0.06017
C          1.10537        14.87836         0.65634
C         -0.10834        14.13781         0.14577
C          1.11292        16.37255         0.39472
C         -0.05836        17.11422         0.43435
C          1.14311        19.20909         0.06505
C         -0.04469        18.51405         0.27558
C          1.17057        20.65597        -0.16759
C          0.00392        21.43001        -0.02755
C          1.17393        23.40974        -0.79431
C          0.04303        22.80726        -0.23918
C          1.22296        24.91459        -0.93887
C          0.93300        25.27182        -2.38649
C          2.16668        27.36518        -2.24123
C          1.34943        26.43557        -2.95138
C          2.50553        28.60745        -2.79400
C          3.76819         3.50544         1.07336
C          2.56622         4.33301         1.47038
C          3.58946         6.31459         0.34966
C          2.33779         5.49619         0.49491
C          3.59062         7.69358         0.26699
C          2.34032         8.43557         0.39233
C          3.61117        10.55573         0.25703
C          2.36330         9.85919         0.33110
C          3.59253        12.04658         0.50919
C          2.38431        12.72214        -0.12020
C          3.56820        14.88468         0.21043
C          2.38077        14.20104         0.22617
C          3.58660        16.33820         0.21779
C          2.35735        17.05686         0.23119
C          3.61200        19.15789        -0.08262
C          2.37421        18.47754         0.03777
C          3.71593        20.62175        -0.46350
C          2.36224        21.27536        -0.62887
C          3.59521        23.58796         0.74737
C          2.28283        22.59864        -1.12942
C          3.55074        24.97943         0.25981
C          2.51702        25.57955        -0.45389
C          3.88172        27.73855        -0.49036
C          2.58653        27.05537        -0.82212
C          4.13351        29.07210        -1.02005
C          3.38430        29.48734        -2.16768
C          6.12762         3.42181         0.31824
C          4.88006         4.10473         0.53714
C          6.11138         6.30712         0.04630
C          4.81074         5.53847         0.13542
C          6.06276         7.76198         0.18641
C          4.84961         8.42455         0.17177
C          6.07459        10.58697        -0.03043
C          4.83140         9.87732         0.17062
C          5.99876        12.01764        -0.50001
C          4.84184        12.78153         0.07156
C          6.06923        14.89024        -0.13097
C          4.82750        14.15374         0.02532
C          6.06256        16.33276         0.03925
C          4.80941        17.03618         0.13717
C          6.05778        19.20537         0.26489
C          4.81679        18.46551         0.10970
C          6.03311        20.60908         0.46204
C          4.67318        21.29212         0.61135
C          6.01594        23.49428         0.48811
C          4.75803        22.81120         0.57127
C          6.02622        24.93272         0.55719
C          4.81192        25.67454         0.43328
C          6.04231        27.85188         0.70024
C          4.85697        27.09547         0.24713
C          6.00919        29.37764         0.63242
C          5.13963        29.86235        -0.48804
C          8.54963         3.43798        -0.13469
C          7.34146         4.10189         0.12864
C          8.52639         6.29529        -0.34076
C          7.39735         5.59462         0.40884
C          8.59189         7.77202        -0.01329
C          7.34834         8.50213         0.44994
C          8.53683        10.63270        -0.27552
C          7.29669         9.93729        -0.01667
C          8.51495        12.06184        -0.46422
C          7.31091        12.75975        -0.41930
C          8.51997        14.95485        -0.41167
C          7.25769        14.18896        -0.34676
C          8.51731        16.30753         0.21669
C          7.25249        17.06133         0.13249
C          8.52353        19.19200         0.43214
C          7.28415        18.48355         0.28089
C          8.48436        20.59578         0.56557
C          7.25160        21.31891         0.56326
C          8.47239        23.49865         0.51507
C          7.25473        22.78052         0.55475
C          8.47213        24.90977         0.38514
C          7.27574        25.62033         0.51147
C          8.60495        27.79696         0.49856
C          7.33339        27.08003         0.73189
C          8.57936        29.27336         0.49630
C          7.37179        29.98211         0.46521
C         11.02777         3.43041        -0.38869
C          9.80293         4.12989        -0.25715
C         11.04170         6.25248        -0.31552
C          9.83064         5.55457        -0.22297
C         11.08519         7.73816        -0.02432
C          9.75847         8.46768        -0.16920
C         11.02620        10.61370        -0.34237
C          9.76403         9.92155        -0.26087
C         11.05035        12.06294        -0.35988
C          9.81081        12.74859        -0.87824
C         11.07153        14.95009        -0.22623
C          9.81773        14.25564        -0.62131
C         11.07083        16.32612         0.03148
C          9.81270        17.03232         0.35686
C         11.02249        19.17918         0.46919
C          9.80264        18.50647         0.42446
C         11.04929        20.61460         0.63193
C          9.75600        21.29409         0.83307
C         11.04736        23.48519         0.58902
C          9.75897        22.82208         0.78770
C         11.04967        24.90563         0.20656
C          9.72971        25.63708         0.09707
C         11.04452        27.84794        -0.08959
C          9.74086        27.11255         0.18723
C         11.03688        29.12621         0.81085
C          9.80870        29.93718         0.54525
C         13.51144         3.42160        -0.67189
C         12.24525         4.12096        -0.51826
C         13.53474         6.25427        -0.81955
C         12.24191         5.54307        -0.48422
C         13.52954         7.73019        -0.51781
C         12.22312         8.44227        -0.76550
C         13.48404        10.56133        -0.21927
C         12.23975         9.90435        -0.41043
C         13.46758        12.01265         0.09293
C         12.22573        12.76451        -0.17385
C         13.51679        14.92136        -0.12699
C         12.29139        14.21571        -0.19231
C         13.52290        16.35730        -0.06088
C         12.29140        17.05084         0.11401
C         13.50898        19.15667         0.38104
C         12.29060        18.46602         0.33755
C         13.55036        20.58967         0.85868
C         12.24090        21.32617         0.68788
C         13.51507        23.47619         0.64986
C         12.25722        22.77412         0.69162
C         13.49712        24.95886         0.95413
C         12.28405        25.69609         0.41380
C         13.56017        27.82324         0.07395
C         12.28119        27.03969         0.25378
C         13.51036        29.25380         0.57996
C         12.32062        29.90116         0.74344
C         15.98364         3.42609        -0.73086
C         14.72096         4.07595        -0.56718
C         15.99775         6.27417        -0.37513
C         14.70207         5.53461        -0.15567
C         15.98822         7.68690        -0.25724
C         14.70327         8.40589        -0.27033
C         15.94846        10.57885         0.06478
C         14.68264         9.84793        -0.16494
C         15.98061        12.01792        -0.39663
C         14.76552        12.76633         0.10241
C         15.99225        14.87970        -0.23215
C         14.77497        14.22418        -0.11104
C         15.98138        16.34588        -0.58045
C         14.74053        17.07947        -0.11385
C         15.96324        19.23984         0.00341
C         14.74137        18.47819         0.11049
C         15.97710        20.65494         0.15587
C         14.77041        21.36208         0.41467
C         16.00059        23.51418         0.46333
C         14.74511        22.78327         0.50353
C         16.01923        24.94428         0.60978
C         14.78727        25.67766         0.66252
C         15.98423        27.81549         0.65788
C         14.79373        27.07690         0.53448
C         15.96125        29.24258         0.71276
C         14.76628        29.93874         0.70940
C         18.44598         3.46287        -0.91204
C         17.18614         4.12839        -0.70998
C         18.43193         6.29238        -0.63256
C         17.19941         5.57465        -0.54678
C         18.44066         7.71029        -0.47856
C         17.21216         8.38197        -0.23954
C         18.48803        10.58415        -0.21385
C         17.24274         9.82847         0.02716
C         18.46138        12.01904        -0.08324
C         17.27440        12.74022        -0.11240
C         18.47612        14.90577        -0.12177
C         17.24968        14.17961        -0.14149
C         18.46318        16.36399        -0.15860
C         17.25824        17.05219        -0.23416
C         18.52089        19.28292        -0.25875
C         17.20015        18.52237        -0.34038
C         18.46663        20.71518         0.07427
C         17.23403        21.38711         0.14376
C         18.46599        23.53405         0.36477
C         17.22415        22.81551         0.34435
C         18.46904        24.96141         0.45792
C         17.24219        25.64675         0.63861
C         18.48334        27.83998         0.52723
C         17.26062        27.10327         1.02997
C         18.45738        29.24360         0.47378
C         17.24903        29.96857         1.00595
C         19.62255         4.15844        -0.97957
C         20.85297         6.32561        -0.93496
C         19.65505         5.59107        -0.85205
C         20.85704         7.71696        -0.82588
C         19.67244         8.44636        -0.60433
C         20.84768        10.69498        -0.82245
C         19.66473         9.89766        -0.51845
C         20.89303        12.02192        -0.57375
C         19.77323        12.71379         0.17613
C         20.90530        14.93939         0.05805
C         19.71547        14.21519        -0.01599
C         20.91112        16.33910         0.04720
C         19.72481        17.07865        -0.03851
C         20.88699        19.24188         0.37833
C         19.74552        18.51830         0.02200
C         20.88567        20.64111         0.42924
C         19.70781        21.39352         0.27876
C         20.91065        23.57624         0.31719
C         19.71032        22.84055         0.33038
C         20.90240        24.96899         0.28126
C         19.70023        25.68439         0.33691
C         20.79334        27.87538        -0.22259
C         19.67087        27.14212         0.21673
C         20.74352        29.26318        -0.32536
C         19.58499        29.95395         0.04021
O         10.40704        25.12398        -1.10917
O         17.88380        19.00064        -1.56423
O          5.46330         5.80054        -1.15664
O         14.17063        12.33736         1.35813
O          6.59922        27.42435         1.98214
O         16.60976        10.25230         1.31348
O          9.71382        22.08045         2.06771
O         13.71264        27.92352        -1.34664
O          9.14640        16.38560         1.53937
O          9.15420        14.96730        -1.74669
O         10.93586        28.60493         2.18133
H         10.84941        29.36864         2.78939
O          3.29257        23.12542        -1.87683
H          3.97825        22.42127        -2.01231
O         15.92387        16.38536        -2.06420
H         16.21647        17.28098        -2.34386
O         11.11516        28.21984        -1.46590
H         12.08918        28.16648        -1.72637
O         13.33938        25.02729         2.42343
H         14.09579        24.54903         2.82600
O          9.87853        12.55832        -2.32364
H          9.34753        13.28980        -2.71918
O         11.92080         8.32302        -2.19943
H         12.38684         9.04817        -2.66771
O          3.45370        12.22135         1.95112
H          4.20151        11.76091         2.38672
O          2.88397         4.92563         2.77006
H          2.85768         4.21214         3.44104
O          5.45473        29.84385         1.90404
H          5.86564        29.28135         2.59909
O          2.56464        23.11846         1.46069
H          2.78359        22.20072         1.77197
O         20.07281        12.52685         1.60510
H         19.92858        11.57845         1.81115
O         14.44386         5.57110         1.27710
H         15.21222         5.17002         1.73374
O          7.47649         8.57230         1.92266
H          8.35252         8.96830         2.11921
O         17.32047        27.14285         2.50128
H         17.29346        28.09994         2.75484
O         15.84542        11.95121        -1.85291
H         15.94709        12.86117        -2.20687
O          2.09182         4.88977        -0.80687
H          2.17133         5.58829        -1.48928
O          1.56613        27.73213         0.04240
H          1.95888        27.82568         0.93741
O          4.09254        20.91227         1.90009
H          4.77284        21.04966         2.59324
O          0.13520        25.46334        -0.15310
H          0.29814        26.43823        -0.07947
O          5.67975        11.94247        -1.94719
H          4.69841        11.95114        -2.03369
O          7.65892         5.75743         1.82114
H          6.91122         5.37390         2.32454
O         13.70001         6.13970        -2.26294
H         12.99570         6.70103        -2.66647
O          2.59144        12.62347        -1.56933
H          1.80642        13.01130        -2.01094
O          8.16946         6.23744        -1.75271
H          8.87652         6.68238        -2.26542
O         11.41358         7.86042         1.38829
H         10.81837         7.26776         1.89389
O          1.07148        14.73411         2.12347
H          1.40127        13.83339         2.33580
O          4.44705        20.71343        -1.72598
H          4.02483        20.10137        -2.36491
O         17.37717        30.02195         2.45274
H         18.25905        30.39453         2.66248
O         13.72267        20.48975         2.33181
H         12.90732        20.07893         2.69267
H          1.34377         2.47819         1.90899
H         -0.83582         3.64251         1.77008
H         -0.93930         6.10717         1.50466
H         -1.03447         7.98273         0.90445
H         -1.04609        10.40462         0.63996
H         -1.06157        12.25824        -0.12364
H         -1.05917        14.67765         0.02908
H         -1.02387        16.61805         0.60401
H         -1.00336        19.04765         0.31639
H         -0.92507        20.97333         0.33604
H         -0.82417        23.43074         0.01380
H          0.27240        24.59571        -2.94823
H          1.05321        26.68638        -3.98222
H          2.07327        28.88351        -3.76786
H          3.81174         2.44894         1.38496
H          3.60121        30.46616        -2.61740
H          6.12941         2.32024         0.33142
H          5.33309        30.85690        -0.91675
H          8.54516         2.34216        -0.24497
H          7.41920        31.08240         0.45896
H         11.02225         2.33008        -0.39625
H          9.85234        31.03642         0.50006
H         13.48865         2.33759        -0.86539
H         12.30225        30.98359         0.95977
H         15.99933         2.34273        -0.92889
H         14.77001        31.02581         0.89073
H         18.44609         2.36848        -1.02455
H         17.21016        31.02061         0.60861
H         20.57072         3.62447        -1.14075
H         21.80088         5.79284        -1.09945
H         21.81657         8.24557        -0.90866
H         21.70994        10.20483        -1.29734
H         21.80421        12.58843        -0.81630
H         21.86212        14.41000         0.16280
H         21.87862        16.85444         0.11202
H         21.82632        18.71878         0.60225
H         21.83345        21.14873         0.65155
H         21.87699        23.05603         0.28544
H         21.86131        25.50103         0.21818
H         21.71945        27.35389        -0.49969
H         21.62351        29.81810        -0.67862
H         19.55219        31.05211        -0.01311
