         349
 CSIRO Nanostructure Databank - Neutral Graphene Oxide Data Set
C          1.36161         3.41412         0.82337
C          0.17182         3.99923         0.43075
C          1.24948         6.18838         0.26677
C          0.11320         5.37688         0.16084
C          1.20230         7.62208        -0.00605
C          0.00479         8.28632        -0.25085
C          1.08242        10.44613        -0.59281
C         -0.05664         9.69510        -0.44875
C          1.04853        11.93645        -0.55943
C         -0.10384        12.71182        -0.98548
C          1.12896        14.83994        -0.78108
C         -0.07475        14.08491        -0.93792
C          1.12242        16.33100        -0.51531
C         -0.13415        17.07224        -0.89061
C          1.06454        19.21082        -0.86225
C         -0.15597        18.41901        -0.92984
C          1.08042        20.55519        -0.57069
C         -0.12508        21.27178        -0.19421
C          1.13509        23.24464         0.65010
C         -0.11382        22.51896         0.33450
C          1.12388        24.75562         0.84156
C         -0.12030        25.54590         0.82337
C          1.16056        27.62472         0.98351
C         -0.08187        26.90415         0.91086
C          1.19254        29.01368         1.23865
C          3.75403         3.62344         1.38597
C          2.53597         4.20258         0.94638
C          3.68781         6.38134         0.76124
C          2.49401         5.59765         0.64822
C          3.65402         7.78401         0.37099
C          2.44051         8.36150        -0.02540
C          3.67339        10.54447        -0.55608
C          2.38382         9.74440        -0.54938
C          3.64745        12.02785        -0.68456
C          2.38399        12.73776        -0.54968
C          3.61038        14.87584        -1.03063
C          2.36243        14.18125        -0.81186
C          3.57839        16.33433        -1.12959
C          2.37114        17.01974        -1.03500
C          3.63076        19.24861        -1.25293
C          2.30788        18.47464        -1.22387
C          3.63812        20.66700        -0.81981
C          2.31769        21.42093        -0.73026
C          3.63885        23.36444         0.07353
C          2.43565        22.47950         0.38112
C          3.55617        24.82213         0.12760
C          2.36940        25.51735         0.61935
C          3.64811        27.63428         0.82283
C          2.38805        26.90881         0.76558
C          3.64561        29.05422         1.16496
C          2.38921        29.70536         1.34201
C          6.12087         3.72122         2.13223
C          4.89348         4.39312         1.55476
C          6.09703         6.59581         1.43757
C          4.87053         5.78271         1.24238
C          6.12674         7.98534         0.90090
C          4.86913         8.58108         0.44669
C          6.00417        10.79424         0.26158
C          4.84288         9.91828         0.06750
C          6.04807        11.97918        -0.64074
C          4.81907        12.71518        -0.94306
C          6.04664        14.92972        -1.40429
C          4.81887        14.16598        -1.17395
C          6.08987        16.33533        -1.18126
C          4.83622        17.06765        -1.12985
C          6.08081        19.18375        -0.75163
C          4.84596        18.45553        -1.06867
C          6.10533        20.66689        -1.05015
C          4.81582        21.32880        -0.61659
C          6.09971        23.45741        -0.20970
C          4.83037        22.75100        -0.26647
C          6.14935        24.83015         0.08181
C          4.89924        25.61284         0.11472
C          6.12077        27.66906         0.94747
C          4.85315        26.97168         0.66295
C          6.12110        29.15121         1.07173
C          4.84325        29.77105         1.26069
C          8.56379         3.71089         1.58381
C          7.41896         4.40102         1.76498
C          8.65477         6.55663         1.28163
C          7.40828         5.88594         1.72689
C          8.64219         8.07016         1.28561
C          7.31873         8.67673         0.84552
C          8.60752        10.85096         0.31805
C          7.32095        10.13622         0.64097
C          8.55084        12.03863        -0.63460
C          7.23567        12.30306        -1.21457
C          8.53188        14.93370        -1.69809
C          7.26584        14.34851        -1.82212
C          8.55766        16.32470        -1.47808
C          7.34462        17.00840        -1.21923
C          8.61122        19.23301        -1.04574
C          7.39212        18.43894        -0.87019
C          8.62217        20.60942        -0.74084
C          7.36992        21.33923        -0.56223
C          8.58467        23.38580         0.08792
C          7.33125        22.68707        -0.24931
C          8.60680        24.85802         0.16908
C          7.39756        25.53131         0.23103
C          8.60471        27.78775         0.29770
C          7.39590        26.96733         0.62781
C          8.61865        29.30011         0.57627
C          7.30918        29.84317         1.10251
C         11.05812         3.64375         1.02051
C          9.89539         4.42137         1.57629
C         10.91697         6.42271         0.26348
C          9.77608         5.83290         1.04765
C         10.99266         7.92486         0.34824
C          9.86393         8.68139         0.62232
C         11.03636        10.72791        -0.06054
C          9.87875        10.09328         0.34490
C         11.04988        12.05693        -0.73824
C          9.78354        12.64412        -1.26984
C         10.97200        14.92853        -1.18132
C          9.81749        14.11501        -1.87229
C         11.13491        16.30735        -1.86373
C          9.81493        17.08256        -1.74573
C         11.13290        19.24384        -1.27784
C          9.84110        18.56469        -1.48368
C         11.12312        20.63125        -0.97558
C          9.87094        21.29634        -0.72979
C         11.07814        23.51007        -0.47573
C          9.88514        22.66860        -0.22204
C         11.07437        24.91015        -0.02360
C          9.88316        25.54677         0.22776
C         11.12153        27.71125         0.67650
C          9.89695        27.03490         0.27042
C         11.09794        29.05737         1.14908
C          9.87720        29.74781         1.28480
C         13.47186         3.53804         0.53859
C         12.21891         4.27033         0.64160
C         13.41099         6.37563         0.13978
C         12.24029         5.71346         0.43141
C         13.41530         7.79824        -0.11412
C         12.23433         8.55249        -0.02399
C         13.46288        10.70377        -0.23471
C         12.27364         9.99490        -0.12696
C         13.42065        12.17569         0.08969
C         12.28457        12.85351        -0.65954
C         13.50677        14.95982        -0.97155
C         12.29844        14.19940        -1.00004
C         13.54803        16.36642        -1.17280
C         12.34872        17.08563        -1.37073
C         13.59640        19.21201        -1.14511
C         12.34912        18.50984        -1.29472
C         13.59980        20.62985        -0.98742
C         12.36968        21.31895        -0.84819
C         13.61789        23.47874        -0.32227
C         12.36507        22.79002        -0.72737
C         13.63492        24.96402        -0.21188
C         12.32669        25.74162        -0.24645
C         13.58185        27.71498         0.67372
C         12.35477        26.86889         0.80063
C         13.57666        29.06463         1.09601
C         12.35152        29.68589         1.46552
C         15.93725         3.48904         0.35696
C         14.66525         4.16583         0.28858
C         15.93015         6.33045         0.27290
C         14.67719         5.60425        -0.17235
C         15.96104         7.82443         0.09321
C         14.69361         8.48170        -0.36583
C         16.00377        10.64839         0.10602
C         14.72370        10.00180        -0.40376
C         16.02152        12.14169        -0.10348
C         14.74952        12.89404        -0.07634
C         16.07141        14.86649        -1.07970
C         14.76863        14.30472        -0.55158
C         16.04649        16.37588        -0.99902
C         14.82561        17.06941        -1.10463
C         16.07518        19.20818        -1.21295
C         14.83218        18.49988        -1.15526
C         16.05996        20.65495        -1.21012
C         14.86448        21.33082        -1.00175
C         16.06435        23.67421        -0.90840
C         14.89663        22.75373        -0.56471
C         16.12929        24.88898         0.05789
C         14.80797        25.64044        -0.08665
C         16.07608        27.90418         0.05598
C         14.77158        27.11957         0.05837
C         16.05815        29.14292         0.87871
C         14.83793        29.73229         1.23493
C         18.41675         3.44615         0.37771
C         17.14782         4.14856         0.25396
C         18.39511         6.28771         0.07851
C         17.20770         5.60000         0.16428
C         18.44084         7.74882         0.05320
C         17.25590         8.49124        -0.09764
C         18.48083        10.63196         0.09376
C         17.27079         9.95743        -0.47590
C         18.43258        12.06920         0.30021
C         17.21105        12.82514        -0.07804
C         18.47929        14.93627        -0.36566
C         17.29165        14.23726        -0.41563
C         18.52432        16.34393        -0.73685
C         17.28103        17.07253        -0.96448
C         18.59229        19.15906        -1.28450
C         17.28974        18.47523        -1.15330
C         18.63163        20.68050        -1.29424
C         17.33311        21.42983        -1.31593
C         18.62731        23.55044        -0.58624
C         17.37443        22.91241        -1.06507
C         18.60720        24.95280        -0.25001
C         17.39257        25.68829        -0.16685
C         18.63983        27.84792         0.34267
C         17.40306        27.20326        -0.32078
C         18.50761        29.02904         1.22483
C         17.26481        29.67669         1.37609
C         19.59749         4.09054         0.26226
C         20.86576         6.26552         0.43158
C         19.68729         5.53794        -0.15399
C         20.84069         7.62198         0.58653
C         19.68749         8.40187         0.26951
C         20.92295        10.65612         0.20424
C         19.67606         9.87929         0.59290
C         20.95191        12.00193         0.20729
C         19.73752        12.82838         0.45071
C         20.97921        14.93503        -0.33650
C         19.73724        14.36771         0.30537
C         20.98185        16.21972        -0.73821
C         19.75818        17.00762        -0.77420
C         20.99082        19.17468        -0.76962
C         19.82485        18.43814        -0.93084
C         20.99872        20.59254        -0.70873
C         19.85635        21.36550        -0.85229
C         21.03491        23.48184        -0.25972
C         19.83060        22.80460        -0.56297
C         21.04068        24.84568         0.02492
C         19.85969        25.58863         0.05150
C         20.88291        27.43053         1.49434
C         19.89640        27.00886         0.49198
C         20.78119        28.65952         2.09430
C         19.62754        29.46884         1.94390
O          8.61077        12.20677         0.82662
O          9.18367        27.50880        -1.00539
O          6.66392         6.52250         2.81611
O          9.66177        17.99198        -2.88352
O          6.96003        27.07693         2.03117
O          2.88750        18.96999        -2.48708
O         14.82144         9.19815        -1.63840
O         19.74007        27.98763        -0.61454
O         14.31759        22.82347         0.80067
O          1.65892        12.39913         0.69126
O         14.82779        14.03106         0.89407
O         11.64049        23.43379        -1.84346
O         15.78337         7.18912         1.42641
O          3.19245         9.89446        -1.78986
O          7.21940        13.06430        -2.38506
O          4.09598        25.45432        -1.09256
O          6.51034        10.87961         1.62128
O         17.42188        22.38683        -2.44321
O         15.19973        27.93764        -1.09444
O          1.16023        23.80074         2.01067
O          9.38862        22.76634         1.15663
O         10.53017        11.76343        -2.15406
O         18.99307        12.47129         1.66628
O         18.76235        19.91346        -2.53756
O          6.75284        18.75188         0.45199
O         10.24887         4.57998         3.00218
H          9.54600         5.12043         3.42319
O         16.04279        10.40410         1.53454
H         15.29731        10.88501         1.95473
O         17.54676        27.39104        -1.75091
H         18.50983        27.51973        -1.92757
O         12.37878        26.19653         2.11241
H         12.31744        26.88872         2.80421
O          6.13608        20.74948        -2.51083
H          6.02607        21.68940        -2.76708
O          6.15023         2.33512         1.79390
H          6.19943         2.25543         0.81958
O         19.90391         5.52088        -1.61394
H         19.12204         5.08808        -2.01845
O         11.41434        16.10045        -3.26268
H         10.99236        16.84220        -3.75375
O          8.78598        29.98444        -0.71257
H          9.23352        29.32906        -1.30671
O         13.07424        12.24534         1.50902
H         13.38000        13.13026         1.82111
O         14.77180         5.56546        -1.63394
H         14.03472         5.01221        -1.96853
O         19.64200         9.88927         2.06361
H         19.40607        10.81841         2.31783
O         17.30178        10.11107        -1.92161
H         16.47517         9.70725        -2.28232
O         10.03722        13.97481        -3.26736
H         10.57009        13.15711        -3.40610
O         16.25311        24.44649         1.43332
H         15.46707        23.87618         1.63436
O         10.49400        15.17107         0.16754
H         11.25569        15.40642         0.73770
O          1.19382        16.44802         0.95329
H          1.86718        15.80942         1.27232
O          2.15588        22.12523        -1.98908
H          2.18673        21.45682        -2.70735
O          2.73598        21.74872         1.59139
H          2.46254        22.31874         2.34607
O         12.20244        26.36180        -1.54203
H         12.12882        25.64459        -2.20951
O         10.55500         6.14691        -1.14927
H         11.20765         6.61560        -1.71316
O         15.72650        24.24429        -2.19010
H         16.16875        23.69796        -2.88231
O         16.12382        14.50981        -2.49206
H         16.87292        14.98989        -2.90315
O          8.76085         8.42182         2.70026
H          7.96584         8.04675         3.14958
O         19.73475        14.90955         1.65565
H         19.17143        14.30753         2.19642
H          1.41011         2.33964         1.04997
H         -0.73814         3.39099         0.33409
H         -0.84978         5.80873        -0.14282
H         -0.94607         7.73867        -0.21426
H         -1.04423        10.17785        -0.47210
H         -1.00235        12.19219        -1.34776
H         -1.00872        14.62381        -1.15094
H         -1.08125        16.52175        -0.97392
H         -1.11468        18.93897        -1.07532
H         -1.09445        20.76679        -0.31676
H         -1.06547        22.98609         0.62530
H         -1.08562        25.02177         0.83064
H         -1.02027        27.47637         0.96058
H          0.24158        29.54809         1.37928
H          3.78998         2.55051         1.62473
H          2.38056        30.78177         1.56622
H          6.03524         3.77365         3.25402
H          4.80468        30.85464         1.44854
H          8.54550         2.61106         1.64635
H          7.27900        30.93158         1.26847
H         11.06412         2.55499         1.18726
H          9.90091        30.78574         1.65324
H         13.46388         2.46788         0.79884
H         12.35791        30.72174         1.83281
H         15.93506         2.40233         0.53573
H         14.85884        30.69869         1.76115
H         18.38980         2.36906         0.60352
H         17.21871        30.57682         2.00772
H         20.54077         3.53227         0.36335
H         21.77605         5.69429         0.66596
H         21.73167         8.13841         0.97369
H         21.85223        10.09831         0.01271
H         21.89953        12.50747        -0.02719
H         21.92007        14.36879        -0.32758
H         21.91185        16.67833        -1.10366
H         21.93768        18.65586        -0.56558
H         21.95503        21.06632        -0.44933
H         21.99162        22.94527        -0.26369
H         21.99825        25.33839         0.24306
H         21.70580        26.75285         1.76015
H         21.56577        28.98932         2.79017
H         19.54740        30.39568         2.52985
