         240
 CSIRO Nanostructure Databank - Neutral Graphene Oxide Data Set
C        -11.17748         0.77658         0.04131
C         -9.95924         1.55942         0.13448
C         -8.66985         0.78962         0.33191
C         -7.48219         1.56797        -0.20783
C         -6.19278         0.81304        -0.47095
C         -4.92710         1.49360        -0.14882
C         -3.74744         0.78208        -0.12802
C         -2.48433         1.41304         0.19108
C         -1.29043         0.74543         0.18172
C         -0.01375         1.44096         0.14666
C          1.18092         0.74067         0.41806
C          2.47883         1.30538        -0.13133
C          3.69163         0.76054         0.65118
C          4.96328         1.38267         0.12642
C          6.21770         0.66179         0.44070
C          7.47319         1.42500         0.55996
C          8.74765         0.71930         0.44317
C          9.96363         1.44448         0.26615
C         11.20198         0.66827         0.26510
C         -9.93102         2.93059         0.14002
C         -8.68981         3.69844         0.24029
C         -7.44728         3.00139         0.16282
C         -6.22229         3.68768         0.30765
C         -4.97717         2.87299         0.40457
C         -3.68631         3.56446         0.71873
C         -2.35203         2.86327         0.58105
C         -1.35245         3.51906        -0.37927
C         -0.02769         2.78187        -0.27801
C          1.21769         3.46505        -0.62183
C          2.49867         2.82520        -0.27089
C          3.66147         3.55307        -0.32421
C          4.95480         2.83250        -0.22989
C          6.19653         3.59680        -0.14364
C          7.44490         2.92213         0.24312
C          8.70526         3.56369        -0.30314
C          9.96065         2.82834         0.09318
C         -8.66947         5.09410         0.33634
C         -7.43924         5.82801         0.45794
C         -6.20888         5.07710         0.51861
C         -4.94620         5.81588         0.76079
C         -3.65914         5.06316         0.80816
C         -2.38179         5.76103         0.43010
C         -1.18957         4.99230        -0.04752
C         -0.09481         5.74756        -0.82048
C          1.22660         4.97066        -0.86787
C          2.49865         5.69735        -0.75983
C          3.70405         4.99846        -0.58677
C          4.97044         5.67778        -0.59497
C          6.18572         4.97986        -0.35318
C          7.44932         5.71845        -0.14698
C          8.64186         5.05289        -0.03870
C         -7.41536         7.22972         0.53222
C         -6.17402         8.01562         0.90222
C         -4.90518         7.28734         0.54309
C         -3.73267         7.94325         0.29380
C         -2.50576         7.17150        -0.13663
C         -1.20333         7.94591         0.00453
C          0.06098         7.17388        -0.28535
C          1.25794         7.92313        -0.66758
C          2.47103         7.16296        -0.99012
C          3.78462         7.91537        -1.06092
C          5.10449         7.13382        -1.03143
C          6.21411         7.84858        -0.28539
C          7.34880         7.15526         0.03967
C         -6.13723         9.44243         0.41461
C         -4.98038        10.07059         0.10501
C         -3.69085         9.38803         0.08790
C         -2.50776        10.05318        -0.19322
C         -1.21491         9.40186        -0.23418
C         -0.00210        10.03722        -0.44190
C          1.25106         9.31731        -0.60164
C          2.51985        10.00754        -0.60545
C          3.73091         9.34234        -0.67838
C          4.96859         9.98246        -0.29660
C          6.11765         9.27567        -0.08745
C        -11.17960        -0.58613        -0.01335
C         -9.94704        -1.37235        -0.05885
C         -8.73095        -0.63276        -0.14998
C         -7.51128        -1.30425        -0.54019
C         -6.22766        -0.64939        -0.53659
C         -5.00861        -1.40464        -0.80789
C         -3.70293        -0.61918        -0.62410
C         -2.42826        -1.39301        -0.40524
C         -1.32089        -0.71676         0.32572
C         -0.11664        -1.44164         0.80575
C          1.16947        -0.65387         0.88135
C          2.48228        -1.45895         0.84776
C          3.73235        -0.75428         0.55505
C          4.92502        -1.44549         0.31830
C          6.18917        -0.69941         0.31634
C          7.44375        -1.47413         0.42361
C          8.75819        -0.73256         0.52127
C         10.00850        -1.48704         0.28670
C         11.21997        -0.69523         0.24943
C         -9.93341        -2.76495         0.01835
C         -8.64232        -3.49651         0.33993
C         -7.45964        -2.88207        -0.38678
C         -6.14230        -3.53822        -0.29401
C         -4.98835        -2.88239        -0.62564
C         -3.68286        -3.62311        -0.72409
C         -2.39389        -2.87228        -0.51415
C         -1.15989        -3.62221        -0.07184
C         -0.09554        -2.97831         0.82674
C          1.25537        -3.62834         0.58857
C          2.44332        -2.91803         0.66082
C          3.75866        -3.65620         0.78250
C          4.96722        -2.87577         0.31443
C          6.17303        -3.59465         0.09188
C          7.46873        -2.84213        -0.25194
C          8.73632        -3.61588         0.09033
C          9.97327        -2.86145         0.22292
C         -8.62261        -4.99522         0.10616
C         -7.45158        -5.69247         0.12903
C         -6.12119        -4.94649         0.29390
C         -5.03325        -5.81541        -0.40014
C         -3.68208        -5.11767        -0.54041
C         -2.46639        -5.83866        -0.11300
C         -1.20347        -5.11225         0.02559
C         -0.01217        -5.78982         0.62425
C          1.26248        -5.05481         0.51967
C          2.49117        -5.73511         0.24917
C          3.68437        -5.04912         0.22449
C          4.88981        -5.68402        -0.41218
C          6.17544        -4.96988        -0.08546
C          7.44788        -5.63881        -0.55279
C          8.69680        -4.97396        -0.01753
C         -7.41458        -7.14739        -0.04038
C         -6.26293        -7.89281        -0.02639
C         -4.95998        -7.19216         0.28576
C         -3.71025        -7.95606        -0.04879
C         -2.48578        -7.25756         0.01109
C         -1.25651        -7.99436         0.12544
C         -0.03368        -7.30955         0.52667
C          1.24398        -7.98988         0.15546
C          2.48291        -7.19023        -0.06942
C          3.78527        -7.89925        -0.06827
C          4.94842        -7.18143        -0.17468
C          6.24107        -7.84625        -0.25410
C          7.40768        -7.13706        -0.39203
C         -6.19621        -9.31496        -0.32269
C         -5.04182       -10.02498        -0.28911
C         -3.73858        -9.43094         0.18950
C         -2.47217       -10.08992        -0.27359
C         -1.22895        -9.42339        -0.12402
C          0.01211       -10.11093        -0.14974
C          1.27453        -9.48063         0.41014
C          2.60308       -10.08693         0.02145
C          3.76817        -9.35908        -0.06422
C          5.06525       -10.00971        -0.17571
C          6.22403        -9.30199        -0.22893
O         -6.20880         8.08529         2.37513
H         -5.85968         7.23296         2.71815
O          3.58729         1.15297         2.03610
H          2.90580         0.57185         2.45784
O         -4.87133        -7.07567         1.74539
H         -4.63979        -7.98727         2.07057
O         -4.26271         5.52372         2.05956
O          8.60079         3.38509        -1.75873
H          9.29378         3.93183        -2.18478
O         -3.77984        -9.60033         1.70529
H         -2.85911        -9.46573         2.02330
O          3.97331        -3.81279         2.24551
H          3.84244        -2.93274         2.66096
O          5.57528         7.06640        -2.41025
H          4.77067         6.96849        -2.97170
O         -5.52346        -6.08248        -1.72938
H         -5.03732        -5.48317        -2.34739
O         -7.72079        -2.29367        -1.63490
O         -8.41549         0.73647         1.77969
H         -9.14906         0.23520         2.19491
O          7.47461         2.47058         1.61994
O         -1.90422         3.43356        -1.71010
H         -1.44056         4.09500        -2.27580
O          7.43545        -5.35103        -2.00388
H          7.48781        -4.33676        -2.07936
O         -0.52848         5.87996        -2.19946
H          0.14089         5.43957        -2.77224
O         -2.00048        -2.02278        -1.64691
O         -4.44383         2.93474         1.79483
O          4.71812        -5.51269        -1.85842
H          5.62563        -5.56200        -2.26109
O         -5.84639        -4.70444         1.68288
H         -5.67589        -5.57275         2.12365
O         -1.30349         5.38513         1.33442
O          1.22527         4.03083        -2.00809
O          2.52827         0.76656        -1.47965
H          3.36516         1.09765        -1.89451
O          1.16644        -9.64468         1.86877
H          1.24540       -10.60070         2.07046
O         -8.39083        -3.27131         1.76465
H         -8.92499        -3.91424         2.27540
O          7.44884        -2.69535        -1.65160
O         -1.74356         2.88770         1.89015
H         -2.45995         2.76487         2.55077
O          8.04208        -1.31952         1.72209
O         -2.74228         6.95162        -1.56257
H         -2.74829         7.82290        -2.01194
O         -0.48274        -3.38176         2.16588
H         -0.02529        -2.79938         2.80925
O          4.98426         1.74731        -1.29765
O         -3.57473        -4.50061        -1.89234
O          3.05534         7.59384        -2.29259
O         -0.16211        -6.60730         1.81562
O          1.62232        -7.60324        -1.19871
O         -0.33889         7.50916         1.08468
O         -7.06536         1.37322        -1.58099
O         -1.15714        -1.01553         1.76165
O         -4.24611        -0.84102        -1.94026
O         -0.67355        -4.40040        -1.19001
O          1.88504        -0.95624         2.14314
H         12.18301        -1.22426         0.18951
H         12.15006         1.22410         0.21713
H         10.92388         3.35423        -0.00476
H          9.57244         5.61485         0.13842
H          8.21153         7.68686         0.47104
H          7.01321         9.79883         0.28087
H          4.94842        11.06375        -0.09532
H          2.52151        11.08336        -0.37116
H          0.02310        11.13349        -0.54032
H         -2.54275        11.13983        -0.36897
H         -4.99533        11.13452        -0.17892
H         -7.08355        10.00447         0.40381
H         -8.37485         7.77058         0.53215
H         -9.61740         5.65297         0.32658
H        -10.87579         3.49285         0.06943
H        -12.13516         1.31980         0.02188
H        -12.13698        -1.12679        -0.05042
H        -10.88475        -3.30451         0.14496
H         -9.58224        -5.52390        -0.01518
H         -8.37805        -7.64841        -0.23135
H         -7.12856        -9.81405        -0.63226
H         -5.05597       -11.09450        -0.54927
H         -2.47423       -11.17946        -0.43317
H          0.00207       -11.19854        -0.32765
H          2.66612       -11.18764        -0.00188
H          5.09249       -11.10984        -0.18721
H          7.18757        -9.82964        -0.29323
H          8.35921        -7.68481        -0.48158
H          9.61113        -5.57667         0.10629
H         10.92182        -3.41958         0.16396
