         635
 CSIRO Nanostructure Databank - Neutral Graphene Oxide Data Set
C         23.15398        69.86333        -1.81258
C         23.18840        71.27791        -2.07713
C         22.01700        71.98771        -2.44424
C         23.26392        74.06835        -2.55123
C         22.06795        73.36398        -2.67628
C         25.48657        65.69193        -0.64664
C         25.51885        67.04764        -0.93464
C         24.32614        67.75772        -1.29105
C         25.63849        69.82904        -1.85910
C         24.32459        69.12475        -1.60264
C         25.60644        71.28078        -1.39443
C         24.40313        71.99664        -1.94606
C         25.70183        74.08938        -2.05431
C         24.45807        73.39321        -2.17813
C         27.94840        61.41125         0.08727
C         27.90955        62.86558         0.14962
C         26.74151        63.52910        -0.10632
C         27.93817        65.76898         0.07752
C         26.64174        64.99805        -0.06318
C         27.98231        67.14953        -0.45137
C         26.78973        67.77923        -0.88683
C         28.06689        69.82031        -1.32354
C         26.84198        69.12724        -1.28498
C         28.10833        71.26687        -1.56694
C         26.92075        71.97991        -1.65989
C         28.15832        74.09855        -1.78783
C         26.92248        73.41359        -1.82982
C         30.37305        57.04032         0.59599
C         30.34916        58.48122         0.36297
C         29.06603        59.21884         0.20853
C         30.29947        61.36935         0.92141
C         29.05900        60.69613         0.38007
C         30.33654        62.84567         0.59809
C         29.17862        63.56640         0.37965
C         30.39387        65.71185         0.23355
C         29.21353        65.01703         0.21676
C         30.45070        67.21043         0.05785
C         29.21985        67.80991        -0.58192
C         30.53323        69.76688        -1.60653
C         29.26836        69.12657        -1.07137
C         30.58711        71.25763        -1.37129
C         29.37257        71.96043        -1.52015
C         30.60394        74.08585        -1.48819
C         29.37764        73.40476        -1.59330
C         32.78403        52.77782         0.96810
C         32.77010        54.19130         1.00119
C         31.57336        54.92309         0.85758
C         32.84103        57.04758         0.76026
C         31.57576        56.33961         0.73739
C         32.88698        58.49872         0.29005
C         31.60092        59.26629         0.52750
C         32.88940        61.37627         0.33013
C         31.59193        60.62105         0.60303
C         32.89688        62.82912         0.75041
C         31.61547        63.53574         0.84727
C         32.93675        65.71027         0.43778
C         31.63858        65.06176         0.66984
C         32.99394        67.02055        -0.08615
C         31.74651        67.65310        -0.59855
C         33.10381        69.75186        -1.27330
C         31.80146        68.99513        -1.26329
C         33.06825        71.23285        -1.12778
C         31.82066        71.93316        -1.22854
C         33.01481        74.09079        -1.06875
C         31.82513        73.39334        -1.24845
C         35.24970        48.50058         0.74609
C         35.22016        49.91018         0.89886
C         34.00893        50.63552         0.90607
C         35.22785        52.75181         1.28913
C         33.98966        52.04400         1.04907
C         35.19248        54.17987         1.39733
C         34.01122        54.90955         1.18547
C         35.26635        57.09666         1.17760
C         34.00930        56.35937         1.06840
C         35.29040        58.47917         1.07138
C         34.10077        59.24747         0.78941
C         35.28582        61.39134         1.28203
C         34.09606        60.62025         0.83545
C         35.35088        62.85772         1.05550
C         34.08753        63.54576         0.86752
C         35.36873        65.68202         0.69924
C         34.12220        64.99267         0.72668
C         35.38512        67.05128         0.33042
C         34.23227        67.67343        -0.19668
C         35.53226        69.84588        -0.45242
C         34.33589        69.03956        -0.76773
C         35.50949        71.25433        -0.66353
C         34.26365        71.92336        -0.86975
C         35.53058        74.08763        -0.84545
C         34.22936        73.39754        -0.54502
C         37.71605        44.24036         0.38089
C         37.69785        45.64005         0.55441
C         36.48361        46.36403         0.59852
C         37.71379        48.47792         0.86266
C         36.46274        47.77117         0.74444
C         37.71321        49.89666         0.98202
C         36.46037        50.62856         1.06378
C         37.77111        52.63966         1.71906
C         36.44280        52.01146         1.32268
C         37.75117        54.16044         1.75084
C         36.44074        54.92186         1.66495
C         37.72335        57.01585         1.47967
C         36.49496        56.36714         1.41169
C         37.75541        58.50894         1.68472
C         36.60827        59.20204         0.96714
C         37.86113        61.36220         1.35249
C         36.57169        60.64286         1.43811
C         37.83793        62.85166         1.57309
C         36.55745        63.53418         1.11497
C         37.84804        65.62680         0.86576
C         36.61037        64.96908         0.93045
C         37.90885        67.09281         0.79022
C         36.61234        67.83901         0.50540
C         37.94738        69.90325        -0.00700
C         36.69357        69.21239        -0.01926
C         37.95068        71.31001        -0.32428
C         36.74002        71.98540        -0.55935
C         37.99907        74.20654        -0.97568
C         36.71332        73.42831        -0.78959
C         40.13106        40.00953        -0.28381
C         40.13953        41.39915        -0.02924
C         38.93101        42.12471         0.09038
C         40.19013        44.21657         0.41707
C         38.93101        43.51702         0.30138
C         40.18366        45.63541         0.60114
C         38.95331        46.34635         0.66857
C         40.19562        48.45344         0.97153
C         38.94944        47.76031         0.82134
C         40.18247        49.90514         1.01039
C         38.94312        50.59016         0.95764
C         40.19165        52.79583         0.98692
C         38.87601        52.08914         0.80821
C         40.17899        54.17681         1.06665
C         38.96337        54.90123         1.37447
C         40.16759        57.03636         0.90761
C         38.94582        56.28984         1.38486
C         40.22601        58.50459         1.24487
C         39.05947        59.20598         1.35602
C         40.31208        61.35769         1.09639
C         39.04940        60.66172         1.30402
C         40.30922        62.78221         0.96205
C         39.10068        63.52245         1.08007
C         40.32275        65.59456         0.52781
C         39.09655        64.90366         0.84115
C         40.32981        67.00058         0.26884
C         39.16163        67.77175         0.40840
C         40.47735        69.87943         0.15074
C         39.14878        69.17533         0.17640
C         40.42105        71.31612        -0.29032
C         39.22126        72.01364        -0.41211
C         40.45290        74.11520        -0.57263
C         39.25755        73.43646        -0.64877
C         42.51926        35.76580        -1.16031
C         42.52241        37.16335        -0.89456
C         41.31813        37.89712        -0.73720
C         42.58348        39.98860        -0.33305
C         41.33027        39.28502        -0.45231
C         42.60178        41.35724        -0.03249
C         41.39714        42.09068         0.10718
C         42.66872        44.22461         0.39938
C         41.41328        43.50621         0.33743
C         42.66967        45.62941         0.59136
C         41.42281        46.33837         0.73852
C         42.69031        48.38130         1.45199
C         41.40641        47.73414         0.98099
C         42.66699        49.90570         1.33375
C         41.40306        50.61905         1.05177
C         42.64747        52.74164         0.83362
C         41.44156        52.05509         0.94354
C         42.65980        54.21289         0.56904
C         41.42279        54.92531         1.03284
C         42.68316        57.02564         1.51242
C         41.43081        56.27891         1.16526
C         42.67570        58.46369         1.07911
C         41.50645        59.18110         1.06870
C         42.73903        61.32149         0.71433
C         41.51069        60.63538         0.93388
C         42.76393        62.72522         0.63544
C         41.53639        63.46425         0.68337
C         42.79233        65.55073         0.16981
C         41.54084        64.86823         0.46720
C         42.80950        66.86336        -0.26455
C         41.54298        67.60759        -0.32650
C         42.87096        69.81159        -0.89169
C         41.55135        69.08538        -0.58172
C         42.88776        71.26245        -0.44671
C         41.68188        71.98712        -0.38603
C         42.91829        74.09575        -0.26689
C         41.70006        73.42835        -0.39566
C         44.88379        32.98864        -2.03778
C         43.69552        33.65592        -1.75652
C         44.97756        35.68516        -1.30728
C         43.71325        35.03260        -1.40280
C         45.01205        37.07942        -0.86858
C         43.76846        37.85181        -0.78634
C         45.03190        39.96570        -0.68452
C         43.82753        39.26352        -0.56796
C         45.01154        41.47230        -0.68631
C         43.93373        42.01645         0.24715
C         45.12254        44.21428         0.12910
C         43.90354        43.52787         0.21775
C         45.15169        45.64655         0.28367
C         43.91244        46.35885         0.55666
C         45.12765        48.48587         0.67792
C         43.92202        47.74340         0.81737
C         45.18817        49.86658         0.84435
C         43.94977        50.63554         1.10168
C         45.17963        52.79097         0.76866
C         43.91166        52.01664         0.48214
C         45.17062        54.17879         0.92373
C         43.93409        54.91872         0.96717
C         45.18637        57.00398         1.37455
C         43.94691        56.27714         1.17765
C         45.19399        58.38713         1.28377
C         43.98854        59.03233         0.61375
C         45.28547        61.30170         0.84595
C         44.00945        60.55996         0.57120
C         45.24650        62.77725         0.89886
C         44.01668        63.45643         0.58418
C         45.29381        65.56003         0.30646
C         44.03409        64.83222         0.35815
C         45.34033        66.85950        -0.15259
C         44.09794        67.54427        -0.69208
C         45.40056        69.76064        -0.68176
C         44.08230        69.05094        -0.28842
C         45.36316        71.22476        -0.29290
C         44.13332        71.93383        -0.30979
C         45.35155        74.04138         0.08272
C         44.13607        73.37477        -0.14117
C         46.11178        33.66048        -2.01868
C         47.41568        35.77604        -1.80981
C         46.17607        35.02666        -1.66382
C         47.48241        37.12432        -1.61915
C         46.32458        37.83068        -1.03949
C         47.56920        39.91972        -0.68531
C         46.26928        39.32652        -1.24566
C         47.54682        41.43119        -0.65303
C         46.35905        42.11602        -0.42776
C         47.59893        44.21271        -0.14513
C         46.36962        43.51811        -0.14684
C         47.62820        45.63816         0.08422
C         46.37622        46.32314         0.24043
C         47.61847        48.46257         0.66871
C         46.36565        47.81793         0.12840
C         47.65240        49.93681         0.63707
C         46.41406        50.61456         0.72108
C         47.65044        52.71649         0.76295
C         46.41140        52.04187         0.76854
C         47.65683        54.21200         0.69721
C         46.40461        54.89981         1.15750
C         47.66619        56.95809         1.93958
C         46.41750        56.24765         1.44751
C         47.70461        58.44306         1.64118
C         46.38906        59.16797         1.77667
C         47.66813        61.28322         1.51680
C         46.49826        60.59260         1.30445
C         47.60042        62.78078         1.68754
C         46.42602        63.47401         1.05891
C         47.72184        65.55254         0.85203
C         46.50259        64.87387         0.75781
C         47.82565        66.92197         0.39490
C         46.67815        67.54146        -0.38342
C         47.80690        69.73851        -0.03886
C         46.63856        69.04410        -0.19261
C         47.80731        71.18199         0.05884
C         46.57451        71.89761        -0.02302
C         47.78137        74.00168         0.43674
C         46.56956        73.33378         0.17166
C         48.68170        37.95513        -2.04656
C         49.91409        40.05733        -1.49134
C         48.76944        39.33373        -1.40737
C         49.99048        41.44765        -1.06436
C         48.79339        42.12903        -0.68540
C         50.06740        44.22794        -0.47600
C         48.82327        43.52809        -0.42792
C         50.11060        45.65109        -0.14366
C         48.86342        46.31468         0.12607
C         50.15084        48.50388         0.42246
C         48.91015        47.72516         0.56625
C         50.13267        49.88934         0.40448
C         48.87976        50.61566         0.56283
C         50.12034        52.77195         0.46157
C         48.87626        52.03822         0.62042
C         50.14966        54.15908         0.61998
C         48.94353        54.80212         1.19312
C         50.05297        57.05463         0.91872
C         48.96528        56.22966         1.57958
C         50.17170        58.39711         1.59854
C         48.88753        59.14360         1.67632
C         50.15714        61.29992         1.87537
C         48.93010        60.59387         1.73406
C         50.07368        62.77521         1.86685
C         48.90899        63.46842         1.47493
C         50.16482        65.57208         1.35303
C         48.93813        64.86886         1.27109
C         50.18881        67.07253         1.27358
C         48.98839        67.62352         0.54677
C         50.32939        69.75623         0.37932
C         49.11923        68.98080        -0.08632
C         50.25879        71.17433         0.36947
C         49.03385        71.87287         0.26923
C         50.19131        73.98787         0.85553
C         49.00945        73.31351         0.48572
C         51.18842        42.16823        -1.13925
C         52.53803        44.29921        -0.99917
C         51.24082        43.54009        -0.82749
C         52.62481        45.55477        -0.12530
C         51.32431        46.32375        -0.06278
C         52.59519        48.51849        -0.14025
C         51.44327        47.74177         0.45322
C         52.55578        49.92985        -0.17064
C         51.34985        50.63984         0.14934
C         52.50596        52.81239        -0.16109
C         51.32868        52.05882         0.14604
C         52.50737        54.24904        -0.03874
C         51.33971        54.92447         0.43346
C         52.51934        57.08564         0.44942
C         51.35616        56.32810         0.68080
C         52.59193        58.50843         0.78626
C         51.45532        59.14859         1.50618
C         52.70374        61.24169         1.62127
C         51.43063        60.62092         1.71552
C         52.97046        62.53600         2.16516
C         51.16063        63.59398         2.23054
C         52.64895        65.60458         1.78299
C         51.34350        64.92728         1.78839
C         52.72795        66.92890         1.37225
C         51.52234        67.57457         0.67964
C         52.74892        69.81749         0.90546
C         51.51892        69.08820         0.68135
C         52.75577        71.19418         0.76767
C         51.54191        71.94935         0.29044
C         52.59510        74.01164         1.26669
C         51.44678        73.34707         0.86097
C         53.78535        46.42030        -0.54932
C         54.99025        48.52639        -1.05250
C         53.76210        47.79085        -0.54662
C         54.96873        50.02639        -0.85576
C         53.72757        50.69387        -0.53578
C         54.85321        52.85000        -1.01730
C         53.67974        52.10004        -0.53869
C         54.82691        54.37271        -0.95418
C         53.64308        55.04205        -0.36707
C         54.79061        57.23759        -0.62576
C         53.64397        56.42935        -0.14192
C         54.83657        58.75294        -0.37571
C         53.71114        59.25927         0.49947
C         55.01012        61.37312         0.74310
C         53.82344        60.62672         0.95289
C         55.07889        62.78725         1.06957
C         53.97169        63.38460         1.76024
C         55.19083        65.55929         1.79348
C         53.92703        64.83781         2.21249
C         55.18914        67.04342         2.07362
C         53.94491        67.70616         1.48578
C         55.21033        69.83721         1.41261
C         53.96989        69.07625         1.25232
C         55.20003        71.24343         1.34602
C         54.03348        71.98451         0.75675
C         54.97888        74.07700         1.74896
C         53.88495        73.38873         1.31248
C         56.13950        50.73702        -1.02310
C         57.32450        52.91868        -1.18078
C         56.16611        52.17448        -1.04980
C         57.32640        54.36359        -1.12982
C         56.11951        55.05398        -0.90852
C         57.36429        57.24674        -0.81347
C         56.08961        56.51424        -0.88354
C         57.38990        58.58446        -0.44521
C         56.18252        59.19659         0.23950
C         57.39577        61.40466         0.10750
C         56.22020        60.71054         0.30870
C         57.41104        62.92527         0.14362
C         56.26042        63.51884         0.92242
C         57.68358        65.52323         1.66220
C         56.32225        64.89007         1.37855
C         57.64756        67.02990         1.57303
C         56.48023        67.72700         1.68570
C         57.65930        69.92544         1.63228
C         56.45572        69.17929         1.61942
C         57.61431        71.33156         1.62105
C         56.37265        71.97952         1.58742
C         57.44152        74.16015         1.16837
C         56.33429        73.45793         1.91337
C         58.53016        55.10997        -1.27811
C         59.76770        57.25788        -1.24555
C         58.57098        56.52350        -1.13630
C         59.79117        58.65672        -1.01898
C         58.60261        59.32812        -0.55213
C         59.82973        61.45065        -0.45298
C         58.61991        60.72055        -0.26843
C         59.89456        62.84627        -0.14993
C         58.76191        63.42664         0.65908
C         59.94532        65.63313         0.56024
C         58.82453        64.92790         0.85178
C         60.16526        66.99773         1.12488
C         58.95412        67.72655         1.64074
C         60.21187        70.01069         1.40066
C         58.96617        69.23396         1.75560
C         60.06589        71.43954         1.05687
C         58.87723        72.16859         1.65333
C         59.76392        74.20557         0.42097
C         58.65129        73.54303         1.03908
C         60.96334        59.41130        -1.24081
C         62.14677        61.57341        -1.27644
C         60.98927        60.79746        -0.99471
C         62.15545        62.95162        -1.07043
C         61.01158        63.59339        -0.48302
C         62.32749        65.76380        -0.40604
C         60.96232        65.09988        -0.42870
C         62.43334        67.12506        -0.11362
C         61.40540        67.76989         0.74553
C         62.39194        70.02816         0.03202
C         61.43520        69.27305         0.87162
C         62.27342        71.43111        -0.07920
C         61.08746        72.11791         0.42306
C         62.05117        74.25609        -0.43110
C         60.94971        73.54818         0.14997
C         63.33353        63.73195        -1.34848
C         64.76499        65.75523        -1.11532
C         63.42693        65.06166        -1.00455
C         64.64043        67.25313        -1.22461
C         63.53458        67.90629        -0.59768
C         64.47910        70.08878        -1.27834
C         63.46877        69.33921        -0.60092
C         64.41284        71.50670        -1.32042
C         63.29998        72.17985        -0.73264
C         64.36225        74.44065        -1.31886
C         63.19779        73.61277        -0.82931
C         65.62540        67.98051        -1.86081
C         66.53144        70.13374        -2.63390
C         65.56377        69.40593        -1.93008
C         66.46881        71.54619        -2.71506
C         65.42238        72.24588        -2.03612
C         66.33412        74.35091        -2.85672
C         65.38315        73.66227        -2.10816
C         67.43171        72.28086        -3.46137
C         67.35448        73.65841        -3.53871
O         31.78879        67.74915        -2.05382
O         35.77592        60.95752         2.62343
O         31.53779        64.45104         2.00220
O         34.05119        69.18267        -2.22033
O         52.06853        63.02218         3.11534
O         37.08965        54.61628         2.97373
O         44.85626        60.96353        -0.56345
O         55.16592        56.96846        -2.01225
O         41.15214        68.23679        -1.67868
O         48.19087        47.89721         1.88217
O         37.16547        67.75630         1.86742
O         61.31056        67.05604         2.03052
O         45.93253        37.36369         0.26697
O         61.37116        69.74648         2.25198
O         49.23483        55.19887         2.58374
O         54.56702        53.65460        -2.21419
O         59.12194        68.39705         2.93526
O         27.06467        65.59082         1.24097
O         51.04232        58.41562         2.75399
O         43.41793        50.54914         2.45889
O         55.09952        67.24364         3.53068
H         55.98628        67.03881         3.90251
O         46.12695        59.28515         3.23105
H         46.46626        58.45472         3.64795
O         60.41337        65.51237        -1.74072
H         60.85495        64.96887        -2.42770
O         58.89574        62.86240         2.00682
H         59.81833        63.01378         2.30466
O         46.99453        67.37215        -1.81846
H         46.37518        67.99012        -2.29315
O         33.00363        61.38634        -1.13730
H         33.01196        60.43893        -1.42581
O         38.07478        52.19135         3.05864
H         37.59225        52.79123         3.67207
O         59.19500        72.38236         3.06978
H         60.10300        72.74865         3.12568
O         42.96666        69.87392        -2.33576
H         42.52427        69.05480        -2.67368
O         47.36202        62.94309         3.14272
H         48.02033        62.38877         3.61503
O         51.73892        72.15893        -1.17650
H         51.54543        71.30287        -1.61814
O         57.92719        65.20711         3.06648
H         58.09382        64.23436         3.10712
O         43.87942        51.81545        -0.98775
H         44.73582        51.40814        -1.24472
O         44.08564        58.56865        -0.77489
H         44.57013        59.27444        -1.26795
O         47.52873        56.89973         3.40028
H         48.04834        56.11283         3.69847
O         25.44869        71.25174         0.05856
H         25.37854        72.17805         0.37115
O         42.59138        54.33601        -0.90789
H         43.08479        53.56616        -1.28240
O         43.96956        69.12942         1.14415
H         43.03189        69.29024         1.40112
O         52.64600        44.71154        -2.37038
H         52.48350        43.93284        -2.94096
O         53.95342        64.82217         3.66617
H         54.14342        65.75022         3.95683
O         44.15436        67.48550        -2.15227
H         44.21134        66.53907        -2.40346
O         30.17634        61.30656         2.38584
H         30.70691        62.03844         2.76896
O         49.50960        57.34409        -0.40778
H         49.31393        56.49196        -0.85717
O         47.64655        39.48286         0.69578
H         48.40783        39.93276         1.11708
O         40.05418        57.05006        -0.56772
H         40.45320        56.22169        -0.91252
O         41.00651        69.89073         1.53238
H         40.33675        70.31484         2.11104
O         25.81947        69.86558        -3.30253
H         25.89073        68.94312        -3.62441
O         37.83660        62.99729         3.03950
H         37.11295        62.41365         3.37115
O         38.43645        52.37483        -0.55727
H         39.14189        52.08122        -1.17116
O         54.69331        59.42873        -1.64285
H         54.90202        58.76364        -2.34326
O         45.57333        69.71859        -2.13311
H         44.67618        69.87206        -2.53797
O         37.53511        58.71039         3.10796
H         38.20614        58.19454         3.60156
O         48.60697        38.14977        -3.47567
H         47.84234        38.75059        -3.63546
O         30.52866        67.78233         1.40218
H         29.79879        67.40219         1.93659
O         42.66684        57.08404         2.99189
H         42.73458        56.16522         3.32933
O         51.77287        47.57772         1.90773
H         50.92005        47.46167         2.38285
O         44.64685        41.87862        -2.04346
H         45.33459        41.51130        -2.64370
O         52.88772        45.10274         1.23721
H         52.75182        45.89102         1.81888
O         44.32884        41.63410         1.59490
H         43.63895        41.94717         2.21621
O         57.29063        63.40130        -1.22613
H         56.45159        63.05410        -1.59552
O         30.39173        69.66455        -3.05994
H         30.71735        68.76978        -3.31190
O         56.17936        47.95712        -0.48929
H         56.11664        48.02201         0.48554
O         56.18836        58.67969         1.60126
H         56.96331        59.05681         2.06818
O         34.09424        73.46480         0.93922
H         33.21820        73.08488         1.16586
O         46.27790        39.59216        -2.69350
H         45.43170        39.25804        -3.06229
O         56.64488        73.57993         3.33818
H         57.53549        73.17413         3.48679
O         46.38200        48.11900        -1.31411
H         45.64546        47.62167        -1.72898
O         47.73487        54.55256        -0.74783
H         46.90131        54.24645        -1.16625
O         42.77021        48.06043         2.87161
H         43.24563        48.81212         3.29826
O         38.08328        74.66857        -2.34051
H         38.14339        73.88412        -2.92366
O         36.94053        59.23119        -0.44743
H         36.11357        59.32861        -0.96469
O         33.02899        58.45647        -1.18000
H         32.18611        58.10013        -1.53952
O         65.54220        65.21474        -2.18601
H         65.08007        65.40456        -3.02767
O         49.38755        68.71589        -1.51705
H         48.59610        68.20932        -1.85628
O         29.72461        58.78844        -1.01590
O         63.90577        75.58228        -2.05594
H         63.48181        75.26454        -2.87907
O         50.14518        67.57766         2.64203
H         49.36534        67.18421         3.08707
O         54.39964        72.15370        -0.65949
H         53.56118        72.38079        -1.13737
O         51.59419        67.14547        -0.70534
H         50.88681        67.63160        -1.20518
H         23.29246        75.15059        -2.74208
H         25.71568        75.17894        -2.20739
H         28.17393        75.19323        -1.89636
H         30.62048        75.18427        -1.54546
H         33.00937        75.19079        -1.10533
H         35.51652        75.17728        -1.00070
H         37.95946        75.13092        -0.34199
H         40.46365        75.21040        -0.67676
H         42.94289        75.19548        -0.25769
H         45.35501        75.13501         0.20151
H         47.76953        75.08870         0.60558
H         50.12356        75.03028         1.20216
H         52.51861        75.06897         1.56787
H         54.85466        75.10379         2.12873
H         57.29765        75.18445         0.79122
H         59.65201        75.26161         0.13230
H         61.97174        75.34554        -0.56070
H         64.88344        74.85215        -0.40652
H         66.28284        75.44753        -2.90914
H         22.17607        69.35932        -1.76505
H         21.06633        71.44569        -2.54941
H         21.15149        73.89879        -2.96330
H         24.55550        65.12447        -0.79748
H         23.36525        67.22410        -1.22066
H         27.03611        60.89118        -0.24541
H         25.83540        62.95410        -0.35260
H         29.42404        56.48728         0.54736
H         28.10533        58.68904         0.40227
H         31.83700        52.23789         0.81848
H         30.61612        54.38566         0.78704
H         34.30009        47.95625         0.63164
H         33.05812        50.09840         0.77091
H         36.76413        43.69642         0.28821
H         35.53228        45.81954         0.50234
H         39.16741        39.48610        -0.37048
H         37.97259        41.59305        -0.00511
H         41.55397        35.24189        -1.22245
H         40.35458        37.37476        -0.82511
H         44.85645        31.92347        -2.30767
H         42.73479        33.12453        -1.81094
H         47.03352        33.12811        -2.29320
H         48.29064        35.23777        -2.20606
H         49.62263        37.37992        -1.85059
H         50.80952        39.61695        -1.95798
H         52.11036        41.65106        -1.44760
H         53.40434        43.62333        -0.74553
H         54.71680        45.91069        -0.83978
H         55.05717        48.34426        -2.16240
H         57.07803        50.18597        -1.18607
H         58.29059        52.40135        -1.27958
H         59.46569        54.57315        -1.49357
H         60.70074        56.74226        -1.51642
H         61.86068        58.91453        -1.63779
H         63.04025        61.07754        -1.68312
H         64.21290        63.22806        -1.77596
H         65.33623        65.53286        -0.16856
H         66.46564        67.45312        -2.33576
H         67.34892        69.59974        -3.14042
H         68.23368        71.73658        -3.98035
H         68.09577        74.22181        -4.12240
