         404
 CSIRO Nanostructure Databank - Neutral Graphene Oxide Data Set
C          1.27608         1.99674        -0.64214
C          1.23090         3.42231        -0.49285
C          2.44368         1.28720        -0.54134
C          2.35291         4.14585        -0.16613
C          1.14707         6.31214         0.26697
C          1.14144         7.69334         0.42062
C          2.34751         5.60024         0.04865
C          2.34281         8.43727         0.44809
C          1.16316        10.64084         0.44944
C          1.15364        12.03067         0.42184
C          2.36104         9.90579         0.54015
C          2.34634        12.77528         0.53021
C          1.14948        14.97689         0.42092
C          1.14672        16.36315         0.33917
C          2.35185        14.24153         0.50918
C          2.35404        17.09258         0.38214
C          2.36719        18.52109         0.12549
C          3.69149         1.95852        -0.29359
C          3.62224         3.40230         0.01291
C          4.91412         1.32151        -0.39435
C          4.91957         4.17449        -0.05383
C          3.56155         6.33060         0.06598
C          3.55680         7.72033         0.32163
C          4.80412         5.63374        -0.44896
C          4.83189         8.44698         0.53741
C          3.58324        10.63772         0.64421
C          3.55974        12.05974         0.67840
C          4.85607         9.93672         0.58592
C          4.80421        12.81628         0.91914
C          3.58051        14.96212         0.55514
C          3.56616        16.38068         0.53387
C          4.84662        14.27047         0.66885
C          4.82985        17.11295         0.67587
C          3.51619        19.23447         0.02699
C          4.81786        18.64435         0.37801
C          6.16897         2.03558        -0.43715
C          6.16738         3.46368        -0.40495
C          7.38764         1.37352        -0.66435
C          7.34884         4.18347        -0.66279
C          6.09208         6.32802        -0.19195
C          6.11439         7.70538         0.27171
C          7.30437         5.66068        -0.66459
C          7.33630         8.49780        -0.04675
C          6.05947        10.61263         0.58538
C          6.12481        12.05064         0.88372
C          7.32742         9.96133         0.18223
C          7.36607        12.79754         0.60771
C          6.06826        14.94152         0.56795
C          6.09444        16.39160         0.47702
C          7.33502        14.21301         0.53837
C          7.25877        17.10398         0.22564
C          6.06418        19.23640        -0.08286
C          7.26755        18.53318        -0.04106
C          8.60859         2.08523        -0.80080
C          8.59658         3.52251        -0.79288
C          9.84468         1.40077        -0.91386
C          9.85223         4.24577        -0.81206
C          8.62393         6.39523        -0.61061
C          8.62474         7.74342         0.01897
C          9.89238         5.65333        -0.61945
C          9.90385         8.49003         0.15393
C          8.62419        10.66330         0.33738
C          8.59355        12.09240         0.44095
C          9.83721         9.97150         0.21025
C          9.81834        12.81289         0.40119
C          8.54672        14.92214         0.35578
C          8.50669        16.35333         0.00064
C          9.80345        14.25098         0.38613
C          9.78112        17.09661        -0.26435
C          8.50311        19.21246        -0.32514
C          9.75558        18.58648        -0.32554
C         11.07626         2.09118        -0.96509
C         11.08018         3.53466        -0.90621
C         12.30470         1.39156        -1.00527
C         12.31368         4.24905        -0.94408
C         11.11492         6.37604        -0.57250
C         11.15427         7.81923        -0.28488
C         12.31084         5.67296        -0.84756
C         12.31557         8.55562        -0.33904
C         11.06684        10.67814         0.14270
C         11.04222        12.09548         0.26258
C         12.31735         9.99764        -0.07200
C         12.26354        12.81079         0.29845
C         11.02991        14.97417         0.45746
C         11.12709        16.39530        -0.10957
C         12.22748        14.20771         0.55652
C         12.21513        17.35801         0.33716
C         10.96902        19.28319        -0.51182
C         12.23411        18.66661        -0.24074
C         13.54560         2.07162        -0.96216
C         13.55083         3.51010        -0.97383
C         14.77335         1.36033        -0.86934
C         14.79535         4.17904        -0.86585
C         13.55999         6.42920        -1.08741
C         13.52814         7.96743        -1.04039
C         14.85320         5.65049        -1.03644
C         14.86900         8.59740        -0.56059
C         13.51144        10.73979        -0.07059
C         13.52491        12.16054         0.16225
C         14.82397        10.05462        -0.18158
C         14.72288        12.94294         0.18254
C         13.45007        14.80047         0.95219
C         13.40373        16.94293         0.94994
C         14.73230        14.31102         0.60341
C         14.67495        17.42713         0.65445
C         13.48842        19.31197        -0.38105
C         14.71361        18.67043        -0.04611
C         15.99710         2.02736        -0.67057
C         15.97649         3.45922        -0.66255
C         17.24918         1.33079        -0.52439
C         17.18677         4.18524        -0.25129
C         16.11632         6.35074        -0.68560
C         16.04088         7.72573        -0.24079
C         17.26648         5.64229        -0.43820
C         17.08608         8.13324         0.58213
C         15.97238        10.81874         0.38287
C         16.02273        12.25827         0.07878
C         17.03138        10.26190         1.02404
C         17.26476        12.98787         0.49395
C         15.92545        15.11927         0.75029
C         15.88125        16.63218         1.16268
C         17.19212        14.45878         0.74083
C         17.19920        17.37151         0.81275
C         15.97897        19.26488        -0.32669
C         17.18691        18.65172         0.04294
C         18.45494         1.97233        -0.21292
C         18.42108         3.42432         0.08790
C         19.70575         1.31085        -0.16153
C         19.67991         4.18832         0.27786
C         18.58133         6.36996        -0.27973
C         18.44130         7.68934         0.46496
C         19.70858         5.55752         0.29490
C         19.57086         8.44343         0.78388
C         18.36109        10.81169         1.09943
C         18.44248        12.19206         0.95428
C         19.55566         9.90988         1.20486
C         19.70272        12.87383         0.96276
C         18.41356        15.11809         0.89379
C         18.49524        16.59592         0.81147
C         19.68165        14.36321         0.97171
C         19.70462        17.20343         0.19962
C         18.40923        19.23740        -0.33241
C         19.66466        18.56460        -0.24510
C         20.90641         1.96896         0.20623
C         20.86205         3.39123         0.62361
C         22.15036         1.32922         0.19073
C         22.16648         4.17010         0.75029
C         20.91117         6.32447         0.58822
C         20.87338         7.76057         0.67696
C         22.13989         5.63961         0.64578
C         22.11050         8.45807         0.75128
C         20.88714        10.67233         1.07086
C         20.86907        12.13999         0.88081
C         22.08234         9.94653         0.46002
C         22.10692        12.79003         0.38013
C         20.94619        15.08769         0.61275
C         20.90326        16.48837         0.13086
C         22.12347        14.27325         0.19197
C         22.10547        17.10010        -0.30687
C         20.86386        19.18256        -0.66329
C         22.09626        18.48679        -0.66017
C         23.38963         2.03620         0.32019
C         23.41056         3.45243         0.47741
C         24.62589         1.35043         0.20471
C         24.61549         4.19226         0.38183
C         23.37179         6.34493         0.64354
C         23.34539         7.76352         0.75208
C         24.61342         5.62489         0.49441
C         24.64214         8.45276         0.98468
C         23.38387        10.70419         0.68730
C         23.38656        12.05648         0.52479
C         24.66290        10.01535         0.96944
C         24.65171        12.82563         0.56326
C         23.38477        15.02019         0.06539
C         23.35797        16.37349        -0.27413
C         24.64653        14.32597         0.29197
C         24.59179        17.05387        -0.54989
C         23.33139        19.13371        -0.95203
C         24.56289        18.45556        -0.87561
C         25.84570         2.04293         0.16032
C         25.83817         3.48666         0.18217
C         27.09116         1.33577         0.16204
C         27.05600         4.21170         0.10344
C         25.85062         6.33559         0.43882
C         25.88621         7.73842         0.69127
C         27.07013         5.59818         0.25676
C         27.16854         8.44748         0.74674
C         25.90704        10.72044         0.62096
C         25.90672        12.08687         0.32594
C         27.18927        10.02637         0.69803
C         27.10981        12.80131         0.00502
C         25.87787        14.96267        -0.18140
C         25.82429        16.33875        -0.54073
C         27.08058        14.21835        -0.24307
C         27.05089        17.02538        -0.82840
C         25.79815        19.13640        -1.07460
C         27.02617        18.46302        -1.01898
C         28.31706         1.99814         0.05046
C         28.28546         3.45404        -0.33969
C         29.55706         1.33585         0.11512
C         29.57333         4.18431        -0.09539
C         28.38808         6.28923         0.52573
C         28.39063         7.77578         0.28488
C         29.56973         5.55562        -0.02715
C         29.56669         8.48081         0.03653
C         28.38578        10.68555         0.15620
C         28.34064        12.08232        -0.14196
C         29.57266         9.94315        -0.04992
C         29.52871        12.76503        -0.57372
C         28.28433        14.89046        -0.64328
C         28.25895        16.31542        -0.87306
C         29.48008        14.16116        -0.80477
C         29.50447        17.03723        -1.03197
C         28.25848        19.16520        -1.07865
C         29.48701        18.48987        -1.01558
C         30.80461         2.02270         0.06809
C         30.80997         3.45918        -0.05348
C         32.03277         1.32376         0.19374
C         32.01984         4.19178         0.12092
C         30.80054         6.28635        -0.43944
C         30.80381         7.76211        -0.17559
C         32.06402         5.58235        -0.02761
C         32.00921         8.41830        -0.37503
C         30.74378        10.61936        -0.49327
C         30.76032        12.01743        -0.73564
C         31.96032         9.84049        -0.74903
C         31.99526        12.69195        -1.02806
C         30.62805        14.86709        -1.48465
C         30.70438        16.34758        -1.14458
C         31.96315        14.13742        -1.37022
C         31.95353        17.05410        -0.99911
C         30.71408        19.19020        -0.93930
C         31.93886        18.50835        -0.83233
C         33.26692         1.99405         0.37572
C         33.22567         3.46310         0.53270
C         34.50369         1.34603         0.46023
C         34.53170         4.24136         0.54599
C         33.29210         6.32035        -0.04802
C         33.27435         7.72874        -0.34455
C         34.52315         5.65466         0.14510
C         34.50832         8.43921        -0.43517
C         33.28537        10.57620        -0.91990
C         33.24884        12.04569        -0.90585
C         34.53198         9.86105        -0.61510
C         34.49428        12.72664        -0.80592
C         33.23263        14.92543        -1.19651
C         33.15911        16.37159        -0.91029
C         34.52222        14.19159        -0.96648
C         34.32443        17.06488        -0.32153
C         33.14555        19.21406        -0.61637
C         34.36174        18.54401        -0.35293
C         35.75163         2.05734         0.50583
C         35.77901         3.48030         0.44258
C         36.98774         1.36596         0.50295
C         36.99213         4.19290         0.35250
C         35.76178         6.33798        -0.00287
C         35.75289         7.74438        -0.26825
C         36.99497         5.63530         0.17599
C         36.99059         8.45075        -0.34396
C         35.72707        10.59317        -0.49796
C         35.70933        12.04096        -0.54119
C         36.98156         9.89677        -0.40363
C         36.92500        12.75278        -0.22885
C         35.74485        14.92975        -0.54256
C         35.60739        16.33438        -0.07198
C         36.93637        14.18486        -0.09602
C         36.86235        17.08148         0.12079
C         35.56641        19.19971        -0.09307
C         36.80740        18.51055         0.13441
C         38.20935         2.05983         0.50886
C         38.20897         3.47931         0.46562
C         39.47214         1.34337         0.41183
C         39.45975         4.23108         0.59888
C         38.22321         6.34136         0.07166
C         38.20770         7.73180        -0.22444
C         39.48483         5.65679         0.24518
C         39.48911         8.41707        -0.42252
C         38.17379        10.63580        -0.28746
C         38.14792        12.04508        -0.07462
C         39.47348         9.97072        -0.42008
C         39.36663        12.74089         0.24838
C         38.05519        14.90795         0.29843
C         38.05785        16.36700         0.31666
C         39.28287        14.16430         0.63096
C         39.27789        17.10140         0.50992
C         38.00732        19.21628         0.32136
C         39.23524        18.53540         0.49058
C         40.66881         1.97610         0.34189
C         40.78257         3.42995         0.54996
C         41.96469         4.17969         0.12342
C         40.71916         6.31202         0.13166
C         40.74986         7.74642        -0.07686
C         41.93979         5.53897         0.04891
C         41.90047         8.51679         0.03800
C         40.70112        10.67046        -0.02803
C         40.61478        12.09174         0.25273
C         41.87558         9.93199         0.07442
C         41.82054        12.87755         0.34610
C         40.58868        14.96292         0.79927
C         40.53456        16.44827         0.68735
C         41.81727        14.23132         0.49356
C         41.69435        17.20845         0.81802
C         40.44549        19.27295         0.63852
C         41.64936        18.61813         0.79017
O         24.74192        13.77061         1.67830
O         39.84791        14.45635         1.95541
O         20.59155        14.91438         2.01597
O         18.07345        17.40000         1.99050
O         14.25733         6.02507        -2.32946
O         24.65917         9.25958         2.21469
O         17.48775         3.79520         1.17400
O          7.89899         6.32243        -1.88104
O          5.49415        12.42208         2.15660
O         21.43856         3.66185         1.93313
O          7.19747         9.36490        -1.20696
O         27.39851         9.27874         1.93329
O         32.55295        10.03933        -2.07680
O         20.42675        10.18654         2.35089
O         13.32039        15.84775         1.83004
O         32.76387        14.51514        -2.54508
O         34.64169        16.48938         1.02945
O          9.03383        16.53721        -1.40459
O          9.26995         7.80625         1.32059
O          4.36372         3.80766         1.22823
O         21.89419        13.38650        -0.97051
O         39.57300         9.19480        -1.65764
O         40.21366         3.89610         1.81208
O         15.23563         9.63581        -1.54614
O         35.50290        14.69244        -1.96909
O         33.78898         3.95720         1.79093
O          5.61134         7.87865         1.66343
O         16.81867         9.01726         1.61867
O          4.86122        18.10234         1.74298
O         16.97280        12.69740        -0.94417
O         11.56387        16.08378        -1.47957
H         10.73640        15.95321        -2.00483
O         28.19167         3.44176        -1.81847
H         27.42432         2.87700        -2.05431
O         15.76135        16.60148         2.60242
H         16.67117        16.74232         2.96390
O          4.64412         5.58650        -1.92131
H          5.14290         6.33457        -2.31514
O         13.30833         8.39201        -2.40338
H         13.91727         7.86714        -2.97059
O         21.82876        10.03010        -0.97979
H         22.53312         9.54235        -1.45521
O         28.56954         6.16910         1.99036
H         27.97905         6.82491         2.42257
O         19.02379         6.71701        -1.64025
H         18.32221         7.26510        -2.05312
O         30.26010        14.82841        -2.90193
H         31.10554        14.90102        -3.40529
O         30.78739         6.20961        -1.93265
H         30.54188         5.29046        -2.17781
H          0.33797         1.47000        -0.86687
H          0.26587         3.92690        -0.64252
H          2.44790         0.19819        -0.69399
H          0.19020         5.77229         0.29521
H          0.17471         8.19811         0.55017
H          0.20220        10.11641         0.36533
H          0.18712        12.54133         0.32068
H          0.18540        14.45212         0.39528
H          0.19441        16.90195         0.23231
H          1.40424        19.00240        -0.10206
H          4.93584         0.23651        -0.57928
H          3.49354        20.28068        -0.31315
H          7.40467         0.27444        -0.71532
H          6.04452        20.25479        -0.49895
H          9.84802         0.30036        -0.91844
H          8.46051        20.30247        -0.47112
H         12.29410         0.29137        -1.01408
H         10.93779        20.35492        -0.75879
H         14.75081         0.26048        -0.88320
H         13.52496        20.31722        -0.82563
H         17.25283         0.23999        -0.67128
H         16.01326        20.21885        -0.87302
H         19.75226         0.24239        -0.42191
H         18.38455        20.22750        -0.81268
H         22.19326         0.25483        -0.04369
H         20.84373        20.23868        -0.97064
H         24.62673         0.25182         0.15170
H         23.32492        20.20474        -1.20365
H         27.07343         0.24431         0.30397
H         25.78631        20.22260        -1.24901
H         29.56624         0.24779         0.28458
H         28.24699        20.26405        -1.13203
H         32.02028         0.22334         0.18774
H         30.70262        20.28938        -0.89308
H         34.53602         0.24693         0.41423
H         33.12212        20.31399        -0.59527
H         36.99062         0.26585         0.50926
H         35.58090        20.30021        -0.08767
H         39.42581         0.24971         0.29950
H         37.99921        20.31629         0.32107
H         41.58783         1.40567         0.13927
H         42.87841         3.62583        -0.13865
H         42.86365         6.06703        -0.22619
H         42.86331         8.02592         0.23756
H         42.82141        10.44038         0.30699
H         42.78103        12.37926         0.15590
H         42.75334        14.78960         0.34982
H         42.66361        16.71415         0.97024
H         40.40485        20.37150         0.62647
H         42.58102        19.18919         0.90421
