         429
 CSIRO Nanostructure Databank - Neutral Graphene Oxide Data Set
C          1.16681         3.63713        -1.48180
C         -0.02398         4.33195        -1.46162
C          1.09671         6.51451        -1.43785
C         -0.06047         5.75341        -1.38780
C          1.12546         7.94748        -1.27524
C         -0.07690         8.67841        -1.11585
C          1.13652        10.78567        -0.85262
C         -0.07443        10.04171        -0.90516
C          1.13557        12.19072        -0.53087
C         -0.06555        12.87656        -0.22940
C          1.16353        14.94416         0.18077
C         -0.04931        14.20953         0.11539
C          1.14706        16.32595         0.62623
C         -0.01454        17.00990         0.92797
C          1.11738        19.16957         1.17168
C         -0.02608        18.40703         1.19673
C          1.08221        20.65121         1.26986
C         -0.10944        21.31592         1.85102
C          1.19627        23.33252         2.42074
C         -0.06089        22.56843         2.33909
C          1.17816        24.89050         2.44851
C         -0.07911        25.65064         2.32800
C          1.08253        27.46142         1.04474
C         -0.11352        26.85703         1.74143
C          1.12914        28.99622         1.14674
C         -0.10196        29.62634         0.54340
C          1.08756        31.63163        -0.22875
C         -0.11128        30.85578        -0.02134
C          1.06429        32.93166        -0.72656
C         -0.13299        33.71791        -0.84253
C          1.12999        35.71961        -1.52246
C         -0.10080        35.03261        -1.23086
C          1.15053        37.10816        -1.82190
C          3.61866         3.65956        -1.34851
C          2.41736         4.32750        -1.50927
C          3.58782         6.50167        -1.14502
C          2.39375         5.82107        -1.81085
C          3.60842         8.00258        -1.32463
C          2.37175         8.68122        -1.26020
C          3.59497        10.85195        -1.08594
C          2.36508        10.10984        -1.07867
C          3.57263        12.24728        -0.84457
C          2.36517        12.91785        -0.50453
C          3.63321        15.06799        -0.17115
C          2.38233        14.30812        -0.15255
C          3.65091        16.39907         0.24014
C          2.43903        17.00382         0.80709
C          3.68157        19.27859         0.90986
C          2.42498        18.50337         1.09145
C          3.68585        20.63343         1.28422
C          2.41183        21.37183         1.39268
C          3.67078        23.40223         2.09737
C          2.44286        22.70651         1.99204
C          3.64572        24.82316         2.17668
C          2.42513        25.54517         2.01955
C          3.61366        27.45539         0.96490
C          2.38850        26.83149         1.47266
C          3.60919        28.89680         0.60540
C          2.41409        29.57905         0.57167
C          3.67107        31.62005        -0.26864
C          2.37839        31.00368         0.17301
C          3.62778        32.83681        -1.12952
C          2.30757        33.54828        -1.25643
C          3.58177        35.64868        -1.72126
C          2.34782        34.99845        -1.50516
C          3.58057        37.04483        -2.02054
C          2.34450        37.74999        -2.07749
C          6.10684         3.69064        -1.26411
C          4.88541         4.33484        -1.37417
C          6.14330         6.56984        -1.44779
C          4.85721         5.79856        -1.56525
C          6.08313         8.02106        -1.20778
C          4.83996         8.71488        -1.27305
C          6.08959        10.84225        -1.19938
C          4.84813        10.14935        -1.22187
C          6.07822        12.31311        -1.33688
C          4.78868        13.05039        -1.06840
C          6.10978        15.12978        -0.47954
C          4.85744        14.45000        -0.60488
C          6.14065        16.50412        -0.07982
C          4.83869        17.26604        -0.10111
C          6.11562        19.29656         0.71144
C          4.88333        18.61264         0.58419
C          6.11794        20.62213         1.20413
C          4.91461        21.31595         1.50077
C          6.16103        23.40171         2.12693
C          4.92322        22.69184         1.93387
C          6.16250        24.78789         2.17393
C          4.91275        25.61599         2.26978
C          6.16379        27.60475         1.29079
C          4.94398        26.79410         1.30231
C          6.13051        28.91481         0.69152
C          4.89400        29.54233         0.33557
C          6.14931        31.52818        -0.46133
C          4.93732        30.85789        -0.18669
C          6.15583        32.79092        -1.30417
C          4.87939        33.59389        -1.25727
C          6.08157        35.66144        -1.81067
C          4.84792        34.94194        -1.60994
C          6.03075        37.02992        -2.16884
C          4.81248        37.70177        -2.26444
C          8.56675         3.71231        -0.88421
C          7.34200         4.41083        -1.11866
C          8.51563         6.55495        -0.72114
C          7.35837         5.82321        -1.11467
C          8.47724         7.96137        -0.66602
C          7.28677         8.70806        -0.97070
C          8.58906        10.82078        -0.97139
C          7.30710        10.14423        -1.01850
C          8.65922        12.28724        -1.22282
C          7.36579        13.07982        -1.25373
C          8.58730        15.11248        -0.47274
C          7.36344        14.46275        -0.73121
C          8.60350        16.48944        -0.05856
C          7.35772        17.18629         0.11156
C          8.60283        19.25241         0.61249
C          7.38270        18.59127         0.46968
C          8.60442        20.74993         0.79069
C          7.40920        21.23711         1.58391
C          8.79458        23.30929         2.41366
C          7.43261        22.61604         2.17782
C          8.69552        24.83856         2.33047
C          7.40466        25.58514         2.22394
C          8.57868        27.70541         1.58027
C          7.38272        26.99960         1.71297
C          8.54203        29.13377         1.20433
C          7.33157        29.66786         0.56178
C          8.64102        31.67711        -0.21156
C          7.37350        30.95007        -0.04337
C          8.62430        33.02644        -0.79768
C          7.39132        33.64536        -1.15926
C          8.55860        35.77248        -1.62141
C          7.34836        35.00100        -1.55422
C          8.55208        37.14228        -2.02905
C          7.28275        37.79678        -2.51147
C         10.99128         3.68108        -0.45683
C          9.74349         4.38416        -0.57926
C         10.90392         6.50268        -0.09245
C          9.74086         5.83293        -0.43697
C         10.93151         7.95481         0.12293
C          9.64707         8.71163        -0.19576
C         11.06274        10.73163        -0.70750
C          9.72221        10.13226        -0.57810
C         11.12067        12.23480        -0.92719
C          9.88033        13.01059        -0.84465
C         11.07308        15.10197        -0.35242
C          9.85431        14.39274        -0.57850
C         11.08513        16.48695        -0.03971
C          9.83579        17.18076         0.12739
C         11.09707        19.28446         0.52565
C          9.85547        18.57769         0.43002
C         11.13747        20.69271         0.84814
C          9.92760        21.36871         1.17272
C         11.19957        23.38078         1.60571
C          9.95939        22.69908         1.61753
C         11.20994        24.80693         1.97674
C          9.90694        25.51811         1.78860
C         11.15068        27.71053         1.14296
C          9.84971        26.96532         1.44909
C         11.13841        29.22364         1.49805
C          9.82143        29.92177         1.10732
C         11.12775        31.79214         0.03819
C          9.82629        31.13835         0.27190
C         11.10562        33.14245        -0.60642
C          9.81167        33.77876        -0.89940
C         11.01167        35.90223        -1.42513
C          9.80759        35.15304        -1.31004
C         10.98300        37.28000        -1.74675
C          9.72270        37.87761        -2.05269
C         13.43804         3.68549        -0.21422
C         12.15929         4.31729        -0.09073
C         13.38588         6.48334         0.61984
C         12.11250         5.74811         0.28355
C         13.45106         7.93987         0.31673
C         12.24623         8.65869         0.07374
C         13.52901        10.73503        -0.15834
C         12.28374        10.02763        -0.23563
C         13.59146        12.15119        -0.26885
C         12.41417        12.92299        -0.69389
C         13.53654        15.04273         0.23485
C         12.36743        14.39953        -0.46811
C         13.59480        16.48130        -0.28189
C         12.31305        17.20615         0.06521
C         13.60004        19.30265         0.39722
C         12.33451        18.58863         0.32922
C         13.62780        20.69223         0.63728
C         12.39057        21.38101         0.90789
C         13.67033        23.51888         1.20806
C         12.41471        22.76615         1.23644
C         13.71069        24.90042         1.44373
C         12.47445        25.58404         1.85224
C         13.67884        27.85265         1.83065
C         12.39073        27.08440         1.80655
C         13.68405        29.40027         1.72129
C         12.45143        29.84212         0.89463
C         13.57272        32.01044         0.53788
C         12.37843        31.33013         0.69990
C         13.55281        33.44199         0.15780
C         12.28683        34.03159        -0.38875
C         13.47377        36.14961        -0.95984
C         12.35605        35.22740        -1.31166
C         13.42633        37.48750        -1.37012
C         12.18715        38.04319        -1.78008
C         15.86064         3.66598        -0.26085
C         14.63107         4.33422         0.03007
C         15.93657         6.46179         0.44710
C         14.68335         5.67378         0.76405
C         15.95815         7.83754         0.33313
C         14.70235         8.59112         0.23382
C         15.98953        10.70740         0.09373
C         14.73931        10.00125         0.05545
C         16.01131        12.10473         0.12003
C         14.80267        12.85332        -0.02077
C         16.05347        14.99407         0.10291
C         14.82762        14.28131         0.06115
C         16.06020        16.45171         0.11958
C         14.85733        17.18294         0.12094
C         16.08981        19.28675         0.28074
C         14.84507        18.58603         0.27069
C         16.09426        20.72031         0.40608
C         14.87939        21.41901         0.63158
C         16.10109        23.59015         0.80170
C         14.89398        22.83992         0.87948
C         16.16617        24.98405         1.08065
C         14.92400        25.68279         1.36881
C         16.15601        27.85539         1.54696
C         14.90386        27.07701         1.53190
C         16.10990        29.28405         1.12873
C         14.92684        29.97843         1.08820
C         16.03824        32.01454         0.20350
C         14.85753        31.34645         0.62468
C         16.00167        33.41716        -0.20044
C         14.81277        34.11181        -0.19417
C         15.89178        36.09249        -1.29649
C         14.76799        35.61011        -0.38598
C         15.88623        37.60996        -1.34621
C         14.66520        38.25284        -1.39008
C         18.30852         3.57165        -0.41385
C         17.09255         4.26492        -0.09718
C         18.50901         6.35782         0.33609
C         17.18221         5.65488         0.41146
C         18.55615         7.87950         0.48645
C         17.21568         8.57055         0.23519
C         18.49236        10.68418        -0.00171
C         17.22979         9.95000         0.14075
C         18.51642        12.09014         0.06678
C         17.27809        12.82924         0.50235
C         18.51779        14.98964         0.07934
C         17.27901        14.29474         0.14389
C         18.54238        16.41681         0.06538
C         17.30298        17.15547         0.11693
C         18.56055        19.30294        -0.23730
C         17.29734        18.56797         0.12035
C         18.56321        20.75547         0.17771
C         17.34763        21.42067         0.34092
C         18.65073        23.64190         0.40677
C         17.31618        22.89345         0.35401
C         18.64471        25.03539         0.88490
C         17.42648        25.67838         1.14255
C         18.76192        27.92807         1.42226
C         17.46121        27.11249         1.54674
C         18.61876        29.17015         0.54594
C         17.29913        29.88659         0.49704
C         18.49536        31.99317        -0.13660
C         17.28059        31.32713         0.18580
C         18.45506        33.37072        -0.55038
C         17.24829        34.07311        -0.59362
C         18.40105        36.17684        -1.20608
C         17.22314        35.45313        -0.99421
C         18.34870        37.61393        -1.41746
C         17.12946        38.29430        -1.44661
C         19.50957         4.22242        -0.52271
C         20.68029         6.35361        -0.86043
C         19.62090         5.64161        -0.33738
C         20.69168         7.77831        -0.85225
C         19.67526         8.52479        -0.30392
C         20.86921        10.70299        -0.56480
C         19.68890         9.97470        -0.30381
C         20.89018        12.08374        -0.46842
C         19.72465        12.80458        -0.11856
C         20.96142        14.96182         0.06394
C         19.74829        14.25309         0.02064
C         20.98566        16.34836         0.12555
C         19.79293        17.10837         0.09401
C         21.00700        19.27230         0.21988
C         19.82122        18.54716         0.10056
C         21.01945        20.66896         0.25401
C         19.82842        21.43795         0.27551
C         21.07465        23.53691         0.81003
C         19.88491        22.84954         0.50740
C         21.10076        24.92018         0.94893
C         19.91884        25.70101         0.97991
C         21.11674        27.87129         0.70072
C         19.97121        27.12816         0.99956
C         21.07610        29.26365         0.50908
C         19.85998        29.96708         0.38300
C         20.96366        32.15375        -0.04787
C         19.76683        31.33611         0.02828
C         20.94737        33.42151        -0.51157
C         19.70498        33.99690        -1.13789
C         20.82908        36.24941        -1.36457
C         19.67845        35.51269        -1.17961
C         20.78158        37.66327        -1.53910
C         19.58309        38.32771        -1.56564
O          7.42760        21.41135         3.02537
O          2.85922        32.72629        -2.37438
O          1.31427        24.11344         3.66158
O         12.94658        27.53417         3.07500
O         12.64207        34.29293         0.99495
O         11.96044        25.11809         3.17661
O          9.67203        25.87421         0.38923
O          5.28028        12.82497        -2.45414
O         11.39652        31.96611        -1.43525
O         17.91918        23.47002        -0.85801
O         12.46193         6.10426         1.69582
O         11.21009        11.30896        -2.06067
O          3.14630        31.89789         1.08815
O         10.04499         8.42991         1.20102
O          8.14112        25.44854         3.52711
O         16.83956        27.46035         2.83143
O          2.62558        17.52301         2.18068
O         12.70157        13.88249        -1.78376
O          8.12310        12.82500        -2.48372
O          1.63130        21.34647         0.10365
O         18.07042         5.73919         1.59294
O          5.51881         6.24475        -2.76746
O          8.96335        30.08316         2.30177
O         17.80837        29.03285        -0.64799
O          4.33807        26.57170         0.00538
O         19.11779        28.43836         2.73627
H         18.33762        28.28349         3.32479
O          8.33535        21.30534        -0.54953
H          8.98260        20.91503        -1.17454
O          2.54739         5.97838        -3.24389
H          1.79608         5.52577        -3.67980
O         15.52128        35.61234        -2.63593
H         16.25619        35.82846        -3.24888
O          1.14304        29.31696         2.56418
H          1.32037        30.27714         2.65686
O         13.69488        29.96793         3.03388
H         13.07512        29.43388         3.58681
O         13.64867        16.40155        -1.73483
H         13.76939        17.30764        -2.08720
O         14.94264        36.19904         0.92924
H         14.21239        35.85496         1.49097
O         17.29745        12.81263         1.98414
H         17.40970        11.87760         2.26176
O          7.19725        39.15047        -2.04560
H          7.15717        39.13452        -1.06757
O          9.18468        23.03599         3.77857
H          8.70225        23.66975         4.35544
O          3.48976         6.27310         0.29028
H          2.64149         6.65654         0.59973
O         13.22504        15.04782         1.65242
H         14.01611        15.35755         2.14169
O         18.54858        19.34594        -1.72527
H         19.28935        19.92811        -2.00051
O          0.95303        27.18099        -0.38093
H          1.17123        26.23840        -0.53779
O         18.86829         8.16165         1.88269
H         18.49882         7.40617         2.40045
O          4.93339        26.25655         3.58912
H          5.00374        25.55394         4.26947
O          4.62414        17.61818        -1.53038
H          4.73095        16.79343        -2.05295
O          6.20073        32.26910        -2.69004
H          6.07608        33.02864        -3.29837
O         12.70322        34.71420        -2.65066
H         13.64354        34.95655        -2.83799
O         11.22513        29.32620         2.92442
H         10.32922        29.58061         3.26058
O         11.33207        27.57095        -0.27810
H         10.87583        26.74083        -0.55783
O         14.83029         5.31950         2.16677
H         13.91847         5.30901         2.54589
O         19.72555        33.58079        -2.55320
H         19.71181        32.59963        -2.56607
O         12.76794        29.37973        -0.43585
H         12.14925        29.78780        -1.07936
H          1.16535         2.53841        -1.42459
H         -0.97425         3.78154        -1.42109
H         -1.03876         6.22813        -1.22711
H         -1.04215         8.15599        -1.14988
H         -1.03902        10.54819        -0.77377
H         -1.02910        12.35227        -0.25223
H         -1.00067        14.69914         0.35842
H         -0.98925        16.50835         0.87090
H         -1.00656        18.88692         1.32062
H         -1.05824        20.76255         1.88903
H         -0.95985        23.02336         2.77856
H         -0.97794        25.23752         2.80878
H         -1.06456        27.40835         1.71317
H         -1.05507        29.08641         0.63730
H         -1.06467        31.26189        -0.39004
H         -1.09691        33.26920        -0.56405
H         -1.03778        35.60670        -1.27828
H          0.20274        37.66464        -1.85173
H          3.60914         2.56784        -1.20015
H          2.35655        38.82311        -2.31657
H          6.13493         2.59333        -1.18106
H          4.81472        38.77147        -2.51967
H          8.57245         2.61387        -0.94718
H          7.34048        37.86194        -3.63585
H         11.01885         2.61318        -0.72181
H          9.68427        38.93794        -2.34259
H         13.46474         2.66235        -0.62170
H         12.14221        39.09800        -2.08792
H         15.81115         2.63884        -0.65570
H         14.61842        39.34342        -1.53013
H         18.24537         2.49980        -0.65297
H         17.12768        39.39088        -1.54233
H         20.40077         3.67274        -0.85994
H         21.49763         5.81832        -1.36441
H         21.52788         8.28089        -1.35885
H         21.79976        10.17221        -0.80723
H         21.83255        12.61348        -0.66036
H         21.91751        14.42170         0.06108
H         21.96061        16.85152         0.16325
H         21.96896        18.75171         0.32348
H         21.99199        21.17118         0.33224
H         22.02427        22.99118         0.88839
H         22.07069        25.41353         1.09722
H         22.07863        27.36018         0.54790
H         22.02734        29.78087         0.32203
H         21.90843        31.73544         0.32706
H         21.88255        33.99847        -0.53225
H         21.81094        35.75815        -1.39978
H         21.72332        38.21483        -1.66805
H         19.54948        39.41657        -1.71491
