         661
 CSIRO Nanostructure Databank - Neutral Graphene Oxide Data Set
C          5.96583        31.81920         0.58627
C          5.96221        33.15833         0.76261
C          8.38352        27.53579        -0.06645
C          8.41886        28.91469         0.12293
C          7.20303        29.66430         0.35591
C          8.43587        31.77599         0.36582
C          7.19644        31.04318         0.44865
C          8.45223        33.18606         0.52570
C          7.22669        33.94991         0.97627
C          8.36683        36.09098         0.35196
C          7.20432        35.36463         0.43579
C          8.41404        37.49982         0.05722
C         10.79396        23.15806        -0.12808
C         10.76378        24.58350        -0.17825
C          9.60169        25.31450        -0.14613
C         10.88530        27.45735        -0.35484
C          9.56379        26.75884        -0.58187
C         10.89830        28.92201        -0.21301
C          9.66262        29.63658         0.03667
C         10.87265        31.80353         0.10704
C          9.65868        31.06508         0.15874
C         10.86745        33.20818         0.19549
C          9.64259        33.89782         0.40750
C         10.79667        36.04917        -0.11761
C          9.67226        35.38893         0.68924
C         10.93382        37.53917         0.20364
C          9.60523        38.24944         0.00290
C         10.90249        40.36860        -0.22572
C          9.65563        39.64073        -0.17195
C         10.91066        41.79803        -0.30778
C         13.25196        18.81271        -0.16507
C         12.77616        20.03395         0.22703
C         11.90306        21.02736        -0.31901
C         13.21506        23.16476         0.40753
C         11.98388        22.41298        -0.00106
C         13.24881        24.53757         0.21375
C         12.08732        25.23131        -0.51184
C         13.35397        27.43134        -0.47583
C         12.04726        26.74272        -0.36177
C         13.36927        28.93173        -0.73254
C         12.09119        29.60932        -0.28302
C         13.35526        31.80679        -0.35696
C         12.16534        31.03963         0.17206
C         13.38002        33.26430        -0.10108
C         12.10240        33.97647         0.13161
C         13.37056        36.08744        -0.15810
C         12.12091        35.34361         0.03503
C         13.36998        37.46837        -0.43187
C         12.05512        38.18556        -0.63221
C         13.40699        40.32839        -0.33133
C         12.11654        39.65483        -0.31685
C         13.38856        41.83886        -0.49509
C         12.08107        42.53812        -0.55345
C         13.26892        44.67395        -1.05959
C         12.08716        43.93379        -0.73626
C         13.30328        46.05121        -1.08213
C         15.70785        14.60106        -0.00438
C         15.66230        16.00322         0.24183
C         14.45474        16.67733         0.28485
C         15.64675        18.89010         0.66399
C         14.31009        18.11422         0.70414
C         15.68892        20.28945         0.82590
C         14.51721        21.11538         1.05979
C         15.72425        23.21249         1.08022
C         14.44218        22.47441         0.80499
C         15.75387        24.65481         0.66843
C         14.42461        25.37596         0.73230
C         15.77196        27.52307         0.35499
C         14.57011        26.72837         0.04216
C         15.77923        28.91828         0.19147
C         14.62385        29.61467        -0.22218
C         15.88200        31.81619         0.06985
C         14.65334        31.06827        -0.34187
C         15.89122        33.23948         0.67572
C         14.54359        34.01542         0.53342
C         15.82713        36.01783        -0.42784
C         14.61102        35.39514        -0.07718
C         15.83319        37.43861        -0.68339
C         14.60731        38.16709        -0.60766
C         15.85548        40.27841        -0.93992
C         14.64632        39.59195        -0.68207
C         15.88191        41.73234        -1.12200
C         14.56925        42.44534        -1.17682
C         15.78081        44.65010        -1.49349
C         14.49465        43.91862        -1.45704
C         15.77800        46.00703        -1.40708
C         14.49243        46.77989        -1.66049
C         15.70863        48.96666        -1.22196
C         14.54473        48.25726        -1.33866
C         15.76806        50.39931        -1.04800
C         18.12476        10.30888        -0.11299
C         18.12511        11.72373        -0.05383
C         16.92476        12.46696        -0.12503
C         18.17305        14.57233         0.14589
C         16.92076        13.87563        -0.01611
C         18.17911        16.02699         0.30777
C         16.90839        16.74694         0.39746
C         18.16892        18.85125         0.33577
C         16.86893        18.13794         0.49845
C         18.17135        20.33528         0.27103
C         16.90970        21.05423         0.57618
C         18.20205        23.14921         0.31417
C         16.93381        22.41839         0.66968
C         18.21267        24.62611         0.63467
C         16.94436        25.32938         0.67269
C         18.25893        27.51442         0.67264
C         16.95226        26.81482         0.96563
C         18.25216        28.88716         0.57318
C         17.02383        29.65715         0.47152
C         18.29628        31.83438         0.63457
C         17.06279        31.03224         0.46176
C         18.29090        33.22713         0.12590
C         17.09992        33.92753         0.04329
C         18.29928        35.91476        -0.83375
C         17.04158        35.26652        -0.42719
C         18.30895        37.39971        -1.09537
C         17.03926        38.14541        -0.93270
C         18.34409        40.14188        -1.63962
C         17.05873        39.53414        -1.09231
C         18.33141        41.67851        -1.66869
C         17.04358        42.40013        -1.42737
C         18.36754        44.62200        -1.57910
C         17.04177        43.87029        -1.66501
C         18.34173        46.07332        -1.30349
C         17.03427        46.73802        -1.16409
C         18.26857        48.93330        -1.35661
C         16.99296        48.22715        -1.06971
C         18.25108        50.43783        -1.30803
C         16.96075        51.11746        -1.01025
C         18.20152        53.23287        -0.63607
C         17.00657        52.49992        -0.67903
C         18.23718        54.54791        -0.12956
C         20.46181         5.99398         0.01642
C         20.50905         7.38860         0.08816
C         19.31851         8.15567        -0.04057
C         20.57925        10.26898         0.11608
C         19.32050         9.56653        -0.00732
C         20.60119        11.68494         0.16500
C         19.37089        12.42532         0.11871
C         20.64242        14.55644         0.61009
C         19.36591        13.83948         0.22583
C         20.66810        15.96750         0.04142
C         19.38761        16.69064         0.38922
C         20.73269        18.82821         0.45711
C         19.42792        18.13594         0.80161
C         20.72891        20.31191         0.18302
C         19.44913        21.03489         0.54232
C         20.65681        23.08946         1.14538
C         19.42359        22.37022         0.77441
C         20.68500        24.56045         0.87986
C         19.41349        25.29798         0.63112
C         20.72960        27.37813         0.59739
C         19.49664        26.75079         0.64427
C         20.78742        28.83221         0.40676
C         19.51865        29.61461         0.35993
C         20.84100        31.77724         0.20417
C         19.59270        31.08416         0.60056
C         20.83033        33.11580        -0.14649
C         19.52824        33.74714        -0.57089
C         20.76207        35.96144        -0.48012
C         19.58047        35.24562        -0.55527
C         20.73302        37.39735        -0.49393
C         19.58150        38.11978        -0.84256
C         20.82483        40.23527        -0.82277
C         19.59346        39.52515        -1.00235
C         20.96948        41.61644        -1.45775
C         19.65235        42.42879        -1.57753
C         20.72089        44.59993        -0.84506
C         19.62207        43.89192        -1.26885
C         20.74104        46.05721        -0.79826
C         19.51343        46.77823        -1.09049
C         20.71815        48.95166        -1.01369
C         19.53661        48.23185        -1.09739
C         20.72830        50.40846        -0.96891
C         19.52738        51.10346        -1.02375
C         20.77529        53.33402        -0.89445
C         19.48395        52.57636        -1.00720
C         20.72861        54.83454        -0.60742
C         19.42305        55.29533         0.03411
C         20.55670        57.31461         0.91312
C         19.38480        56.54455         0.65816
C         20.50432        58.52023         1.60166
C         22.87540         3.10551        -0.23024
C         21.68460         3.75960        -0.12815
C         23.01376         5.91894         0.31691
C         21.63844         5.17054         0.26069
C         23.00456         7.38581         0.19002
C         21.78509         8.08871         0.19539
C         23.03973        10.20731         0.21443
C         21.79304         9.51862         0.17556
C         23.05530        11.63182         0.14139
C         21.86617        12.37573         0.17369
C         23.09629        14.53065         0.20503
C         21.91096        13.81822         0.24659
C         23.14061        15.97429         0.40453
C         21.94771        16.68994         0.41803
C         23.22780        18.80217         0.50021
C         21.94555        18.13107         0.46590
C         23.26637        20.30352         0.36643
C         21.96526        20.94206         0.73974
C         23.24294        23.03794         1.40720
C         21.93163        22.29202         1.24910
C         23.25300        24.48789         1.01338
C         22.01069        25.18600         0.57673
C         23.29697        27.37576         0.63267
C         22.01424        26.66451         0.22513
C         23.29288        28.79978         0.53521
C         22.06496        29.54716         0.68914
C         23.34998        31.69318         0.03950
C         22.10008        31.07868         0.47416
C         23.30783        33.08505        -0.56778
C         22.04230        33.85455        -0.27944
C         23.27749        35.98460        -0.51998
C         22.05826        35.26054        -0.40901
C         23.20068        37.46579        -0.85430
C         21.98386        38.10291        -0.06721
C         23.16631        40.30386         0.16261
C         21.93804        39.58157        -0.31130
C         23.23133        41.74059        -0.22265
C         22.11526        42.43622        -0.86814
C         23.05484        44.59700         0.19825
C         22.02545        43.91720        -0.66220
C         23.01275        46.10299         0.22346
C         21.88453        46.76386        -0.47322
C         23.23119        48.94521        -0.54636
C         21.97285        48.19768        -0.80938
C         23.19796        50.43194        -0.53874
C         21.97872        51.13766        -0.71508
C         23.17918        53.21712        -0.17404
C         22.00250        52.55163        -0.60410
C         23.13806        54.63534         0.18446
C         21.94959        55.34143         0.12154
C         23.11473        57.38151         1.14957
C         21.86900        56.75355         0.51755
C         22.94199        58.53202         2.04074
C         21.67175        59.15246         2.15746
C         22.67629        60.82385         3.62741
C         21.56166        60.31557         2.95762
C         24.13313         3.80256        -0.21272
C         25.47427         5.90630        -0.43861
C         24.20585         5.16250        -0.07303
C         25.51444         7.35148         0.02599
C         24.25750         8.07178         0.19340
C         25.51952        10.19054         0.53013
C         24.25992         9.47460         0.28338
C         25.58362        11.62262         0.27492
C         24.34136        12.31445        -0.05789
C         25.63945        14.49502         0.29535
C         24.36856        13.84243        -0.05973
C         25.63015        15.91989         0.51936
C         24.42321        16.64461         0.51738
C         25.67693        18.80251         0.77687
C         24.42791        18.09522         0.56544
C         25.72556        20.21281         0.91875
C         24.51082        20.96582         0.91628
C         25.75899        23.07675         1.20159
C         24.52613        22.33767         1.14015
C         25.76664        24.53748         1.28681
C         24.45006        25.28462         1.49766
C         25.66196        27.52088         1.41993
C         24.46247        26.70443         0.97941
C         25.80495        28.79642         0.59775
C         24.52971        29.52491         0.29168
C         25.81145        31.64048        -0.06592
C         24.54635        30.98951         0.08629
C         25.83107        33.08284        -0.53812
C         24.56355        33.83539        -0.08391
C         25.75969        36.00929        -0.36512
C         24.54955        35.32832        -0.39907
C         25.84607        37.49053        -0.43331
C         24.50703        38.23638        -0.61728
C         25.67408        40.32519         0.01538
C         24.47138        39.61255        -0.13759
C         25.63666        41.74636         0.21954
C         24.40539        42.43132         0.06411
C         25.61648        44.60789         0.80621
C         24.34998        43.86675         0.44899
C         25.54142        46.11603         0.92306
C         24.26329        46.86800         0.61233
C         25.70805        48.77928        -0.29860
C         24.33745        48.38687         0.33790
C         25.73017        50.36755        -0.58510
C         24.41385        51.09615        -0.32962
C         25.60416        53.16447         0.37516
C         24.40059        52.49390        -0.06675
C         25.55577        54.48523         0.82976
C         24.33242        55.24488         0.76023
C         25.43141        57.09114         2.00468
C         24.30265        56.53539         1.29517
C         25.31019        58.31514         2.67753
C         24.06381        59.01394         2.76518
C         23.91239        60.18243         3.55260
C         26.72270         7.99101         0.06043
C         28.05262        10.19540         0.13418
C         26.85835         9.40184         0.44927
C         28.04519        11.57000         0.20047
C         26.79362        12.30902         0.31055
C         28.11902        14.39337         0.74345
C         26.80725        13.75092         0.36609
C         28.10522        15.90304         0.62816
C         26.91101        16.58686         0.68018
C         28.27174        18.80901         1.05499
C         26.87795        18.02628         1.01102
C         28.21612        20.25326         0.88167
C         26.97350        20.93006         1.00270
C         28.25660        23.05457         1.16843
C         26.95952        22.35786         1.08996
C         28.25520        24.57286         1.26991
C         26.93969        25.25147         1.27914
C         28.26525        27.47471         1.22927
C         26.97434        26.72750         1.44726
C         28.23641        28.92915         0.90723
C         27.04016        29.59390         0.67045
C         28.24902        31.70051         0.30940
C         27.01068        30.97323         0.25644
C         28.23892        33.13573         0.16268
C         27.07108        33.82454        -0.13064
C         28.23399        36.04273         0.38739
C         27.03862        35.28141        -0.25003
C         28.07582        37.46236         0.91657
C         26.98686        38.23053         0.16066
C         28.14210        40.43279         0.41652
C         26.93673        39.61748         0.19363
C         28.13336        41.77383         0.14721
C         26.86789        42.55625        -0.08920
C         28.13298        44.63518         0.63112
C         26.93207        43.95706         0.52461
C         28.18534        46.08164         1.05447
C         26.84621        46.86598         1.04905
C         27.81530        49.13314         0.95211
C         26.80262        48.29639         0.63787
C         28.18023        50.32364         0.10055
C         26.90936        51.11356         0.00905
C         28.06006        53.08247         0.91616
C         26.84873        52.41909         0.42824
C         27.97246        54.39004         1.38743
C         26.73965        55.10426         1.39776
C         26.65626        56.36629         1.98811
C         29.23515        12.35830        -0.12241
C         30.42532        14.50918        -0.50864
C         29.27243        13.70249         0.03690
C         30.63612        15.84891         0.19860
C         29.42231        16.59340         0.69555
C         30.61573        18.78594         0.28903
C         29.47759        18.07411         0.68995
C         30.60050        20.21894         0.26968
C         29.42947        20.94319         0.56373
C         30.63254        23.12041         0.43471
C         29.45801        22.38325         0.64847
C         30.62355        24.55566         0.55076
C         29.47598        25.29084         0.84262
C         30.63383        27.46034         0.51153
C         29.49095        26.73650         0.83483
C         30.67238        28.89062         0.55853
C         29.47312        29.61873         0.72831
C         30.70391        31.77727         0.64339
C         29.45840        31.04522         0.57989
C         30.68499        33.17289         0.80387
C         29.41621        33.83940         0.62765
C         30.98720        36.25587         1.20700
C         29.19656        35.16048         1.01038
C         30.77349        37.61966         0.84996
C         29.42786        38.26511         1.03915
C         30.74547        40.49821         0.75400
C         29.40216        39.75278         0.84998
C         30.65196        41.84471         0.11027
C         29.37376        42.54120        -0.21111
C         30.60002        44.64469         0.14080
C         29.38070        43.98900         0.24886
C         30.77390        46.02806         0.68371
C         29.48035        46.79176         0.83937
C         30.78687        48.91796         0.66328
C         29.67730        48.11137         1.15691
C         30.64699        50.34149         0.68347
C         29.41058        51.03146         0.63175
C         29.30394        52.38716         0.94485
C         31.92356        16.59534        -0.14213
C         33.04609        18.80826        -0.13986
C         31.87355        18.10366        -0.00295
C         33.10355        20.24981        -0.15166
C         31.78112        20.96356        -0.30122
C         33.05168        23.07915        -0.09834
C         31.85458        22.41834         0.08134
C         33.02940        24.54606        -0.23496
C         31.93045        25.30842         0.46601
C         33.11259        27.44429        -0.07364
C         31.78091        26.71906        -0.12813
C         33.09854        28.89961         0.04712
C         31.89637        29.60851         0.31421
C         33.11943        31.73777         0.17259
C         31.92424        31.03266         0.44408
C         33.22044        33.19741         0.41986
C         31.96528        33.94679         0.87914
C         33.27771        36.15602         0.40005
C         31.99298        35.43017         0.73473
C         32.99986        37.47846        -0.33780
C         31.85854        38.30152         0.24896
C         33.06208        40.39371        -0.26124
C         31.86884        39.69165         0.12158
C         33.07330        41.80737        -0.30938
C         31.83056        42.52498        -0.16952
C         33.02648        44.66999        -0.45076
C         31.80333        43.95551        -0.22796
C         33.00482        46.11252        -0.42543
C         31.91108        46.81550         0.05598
C         31.89704        48.23877         0.14182
C         34.28707        20.95129        -0.22779
C         35.50492        23.12345        -0.42583
C         34.31529        22.39774        -0.29753
C         35.57477        24.55818        -0.47956
C         34.28654        25.29238        -0.52513
C         35.53826        27.48549        -0.70789
C         34.27192        26.76042        -0.32204
C         35.58819        28.84301        -0.03026
C         34.29351        29.61418        -0.15226
C         35.43693        31.74664        -0.73252
C         34.26925        31.02026        -0.20440
C         35.44123        33.21175        -0.75072
C         34.35318        33.93996        -0.23021
C         35.38287        36.09478        -0.98803
C         34.29107        35.33683        -0.35280
C         35.45732        37.55819        -0.78441
C         34.28541        38.25995        -0.50254
C         35.49372        40.38904        -0.79109
C         34.27703        39.67571        -0.51738
C         35.46904        41.80812        -0.83146
C         34.27365        42.52811        -0.61264
C         34.21461        43.95547        -0.67917
C         36.76721        25.27884        -0.41949
C         38.00677        27.44179        -0.37390
C         36.82784        26.71682        -0.44511
C         38.03448        28.89916        -0.48675
C         36.83009        29.58039        -0.42986
C         38.00217        31.78653        -0.69021
C         36.74985        30.99157        -0.81766
C         37.94199        33.26019        -0.91261
C         36.63908        33.84509        -1.44401
C         37.91986        36.10602        -1.38611
C         36.62891        35.36923        -1.42096
C         37.89900        37.48231        -1.28177
C         36.68558        38.24532        -1.05359
C         36.68482        39.64714        -1.03291
C         39.25896        29.65576        -0.72181
C         40.45324        31.84067        -1.03060
C         39.27526        31.03674        -0.80233
C         40.41356        33.20060        -1.22664
C         39.19827        33.98155        -1.23161
C         39.15292        35.34641        -1.43398
O         37.91136        32.73563         0.45186
O         24.63699        46.57018         1.98522
O         27.80087        27.13511         2.60165
O         25.30682        28.76255        -0.76217
O         33.36073        24.90014        -1.63028
O         35.66742        35.82217        -2.43241
O         19.05057        31.55202         1.87093
O         14.26194        26.71622        -1.41015
O         13.66154        41.26690         0.80170
O         27.49752        46.47023         2.28530
O         17.00881        47.45862         0.17011
O         22.49592        45.27483         1.34061
O         28.12867        35.87332        -1.04852
O         22.33972         5.45443         1.51919
O         32.98595        33.48673         1.84663
O         22.88728        24.50837        -0.40707
O         20.18209        53.08135        -2.21811
O         23.05898        48.36836        -1.87446
O         15.60512        31.63554        -1.33822
O         29.28750        39.15548         2.20705
O         18.24559        49.70418        -2.59134
O         24.40595        13.08780        -1.31169
O         16.22703        33.10144         2.01837
O         22.09736        30.46814         1.82360
O         22.61094        43.40502        -1.90446
O         13.32852        20.50095         1.45530
O         24.81812        43.94955         1.84202
O         17.75168        44.29337        -2.87473
O         30.37218        15.88162         1.62281
O         26.23226         9.73953         1.72400
O         29.99031        35.67894         2.02418
O         18.22289        19.52446        -0.97799
O         27.58526        18.32874         2.24582
O         14.26141        42.93997        -2.52666
O         19.01678        42.15869        -2.86489
O         28.48260        23.73779         2.45665
O         20.56333        24.03171         2.25817
O         28.73086        48.79372         1.94833
O         25.43817        38.04178        -1.74047
O         35.93410        31.16863        -2.01151
O         18.28526        36.47146        -2.21502
O         22.72877        57.65202        -0.24411
O         22.58676        22.54983         2.58889
O         20.19931        29.25601        -0.88738
O         13.29814        32.73203        -1.47572
O         30.12127        14.76687        -1.88733
H         30.88399        15.25921        -2.26724
O         32.54501        37.08897        -1.66440
H         32.51257        37.88924        -2.22894
O         33.89728        36.49075         1.68081
H         33.91686        35.66629         2.21629
O         31.19736        40.79107         2.11404
H         30.79537        40.10300         2.69727
O         32.40443        25.44317         1.83676
H         31.65240        25.72952         2.39769
O         11.72033        38.08654        -2.05872
H         12.50426        38.36522        -2.57806
O         22.21673        37.80090         1.33330
H         22.48791        38.63841         1.79051
O         13.85791        18.03521         2.08232
H         13.55305        18.93889         2.33668
O         26.74937        42.83817        -1.55165
H         26.40289        42.02498        -1.98076
O         35.71519        28.55900         1.39914
H         35.76993        29.41093         1.88074
O         31.52358        20.98740        -1.76267
H         31.50629        20.05555        -2.06890
O         32.30091        16.27319        -1.49484
H         33.09840        16.79365        -1.72517
O         20.68646        15.83313        -1.40933
H         20.76423        16.72876        -1.79924
O          9.88696        35.53023         2.11808
H          9.08967        35.14190         2.55780
O         36.62417        33.47481        -2.84549
H         35.96252        34.05847        -3.28284
O         20.75147        20.43906        -1.30966
H         19.90349        20.02756        -1.62067
O         26.62627         5.19093         0.01186
H         26.58727         5.13361         0.98853
O         12.27594        24.97799        -1.94160
H         13.11787        25.43318        -2.18994
O         18.29593        23.12799        -1.15319
H         18.26347        22.19249        -1.44947
O         25.91543        50.45179        -2.03936
H         25.90070        51.40066        -2.28825
O         22.00783        26.75186        -1.22881
H         22.59297        26.03302        -1.56228
O         24.21696        49.06619         1.59798
H         24.49415        48.42213         2.29582
O         14.13711        25.65846         2.13142
H         14.61753        24.98683         2.67129
O         20.77540        55.52845        -1.88605
H         20.39498        54.90873        -2.55346
O          9.39816        26.69978        -2.04885
H         10.17382        26.20769        -2.40144
O         24.57785        33.74533         1.36250
H         23.79438        34.21871         1.71411
O         25.86309        33.06282        -2.00646
H         26.70119        32.63576        -2.28385
O         13.41502        29.11766        -2.18021
H         14.08716        28.48699        -2.52448
O         18.39413        39.69275        -3.01711
H         19.01051        40.30180        -3.48952
O         22.87155        37.60013        -2.24846
H         23.71547        37.54613        -2.75168
O         12.49819        30.93037         1.61442
H         11.72277        30.54463         2.07530
O         14.30612        46.74188        -3.12203
H         14.25312        45.80013        -3.39485
O         11.35274        37.71030         1.56895
H         10.85585        37.06204         2.12618
O         21.37315        41.28908        -2.80748
H         21.72636        42.11535        -3.20893
O         14.06670        34.24872         1.88228
H         14.82165        33.93105         2.46363
O         23.42263        20.54754        -1.09503
H         22.52561        20.44838        -1.50646
O         25.38900        27.93040         2.79312
H         26.26568        27.97037         3.25150
O         25.84607        48.05855        -1.52506
H         25.15205        48.37130        -2.14940
O         16.77251        26.88550         2.42588
H         16.77989        27.83202         2.68435
O         15.77822        23.31608         2.56753
H         15.73034        22.40644         2.93456
O         29.37301        42.60709        -1.68894
H         28.46853        42.92169        -1.95341
O         23.02046        40.31849         1.66940
H         23.78363        40.82596         2.02615
O         35.45683        27.69545        -2.13891
H         35.29713        26.82944        -2.56902
O         10.36447        35.87379        -1.48826
H         10.89913        36.47377        -2.06186
O         28.29910        14.13294         2.17520
H         29.11242        14.62236         2.44602
O         19.32760        18.15453         2.26717
H         19.97556        17.50805         2.62177
O         19.35928        33.34583        -1.97342
H         20.14820        33.64990        -2.47249
O         31.38545        26.63134        -1.52008
H         32.08026        26.10454        -1.98948
O         27.56012        37.28911         2.25402
H         27.84741        38.07544         2.77680
O         20.62477        14.69467         2.06266
H         20.57225        13.79659         2.45214
O         23.26126        32.92415        -2.00797
H         24.17884        32.75547        -2.33767
O         28.53763        49.80893        -1.21397
H         27.70666        49.67828        -1.73169
O         31.21619        45.79229         2.07478
H         31.25396        46.66031         2.53053
O          7.38451        34.11085         2.44544
H          7.32537        33.21534         2.84279
O         24.25169        25.38032         2.93672
H         24.68438        26.21274         3.24994
H          5.01146        31.27539         0.50866
H          5.00426        33.69411         0.84869
H          7.41516        27.01428        -0.01000
H          6.25303        29.11087         0.40802
H          6.23095        35.83732         0.22945
H          7.45623        38.02178        -0.10504
H          9.84155        22.61292        -0.22096
H          8.64182        24.79693         0.01171
H          8.71799        40.21496        -0.23843
H          9.94633        42.32716        -0.29295
H         12.94208        18.35794        -1.11613
H         11.04191        20.70205        -0.92405
H         11.14436        44.48771        -0.61492
H         12.39738        46.62288        -0.82939
H         14.75955        14.05784        -0.13199
H         13.52293        16.10676         0.15142
H         13.58853        48.80073        -1.39455
H         14.81948        50.94294        -0.91890
H         17.16892         9.77686        -0.22903
H         15.96842        11.93433        -0.23389
H         16.06935        53.00469        -0.39903
H         17.29235        54.99174         0.22253
H         19.51755         5.49931        -0.25749
H         18.35935         7.62680        -0.14535
H         18.41745        56.93028         1.01775
H         19.52085        58.94964         1.84774
H         22.88702         2.03317        -0.47250
H         20.73896         3.23955        -0.34071
H         22.57267        61.73103         4.23921
H         20.58605        60.81254         3.05633
H         25.04560         3.24216        -0.46308
H         25.53941         5.92351        -1.56574
H         26.18477        58.72449         3.20472
H         24.77589        60.57769         4.10621
H         27.62766         7.43303        -0.22670
H         28.97101         9.66623        -0.16318
H         28.87236        54.88260         1.78522
H         27.54595        56.80256         2.46589
H         30.09602        11.83085        -0.56388
H         31.37910        13.90750        -0.44436
H         31.56818        50.94786         0.68733
H         30.19229        52.92933         1.30435
H         32.72973        16.19865         0.54366
H         33.99186        18.25287        -0.25994
H         33.90572        46.65882        -0.74529
H         32.73662        48.80682        -0.28661
H         35.24372        20.40466        -0.22843
H         36.45331        22.56463        -0.47260
H         36.39716        42.35529        -1.05532
H         35.14274        44.51314        -0.87854
H         37.71385        24.72351        -0.31641
H         38.96746        26.90816        -0.29350
H         38.85168        38.03416        -1.30735
H         37.61839        40.19208        -1.23931
H         40.20280        29.09920        -0.82839
H         41.42685        31.32838        -1.06412
H         41.35856        33.73508        -1.40900
H         40.09186        35.90232        -1.58418
