         648
 CSIRO Nanostructure Databank - Neutral Graphene Oxide Data Set
C          5.84019        31.99429         1.87920
C          5.87904        33.32710         2.10826
C          8.38975        27.81253         1.02015
C          8.33127        29.13171         1.55841
C          7.12733        29.83059         1.54874
C          8.30814        31.83817         2.61427
C          6.99666        31.13469         2.17972
C          8.31329        33.30616         2.66247
C          7.09550        34.01759         2.50444
C          8.29799        36.11733         2.84846
C          7.10955        35.41876         2.56250
C          8.33557        37.54395         2.73691
C         10.70993        23.54545        -0.17990
C         10.35403        24.67743         0.58228
C          9.45949        25.73375         0.36580
C         10.79247        27.64608         1.46975
C          9.54689        27.02149         1.02033
C         10.79032        29.06232         1.83084
C          9.56698        29.77607         1.97696
C         10.79379        31.84685         2.56116
C          9.58244        31.13683         2.37885
C         10.80246        33.27058         2.91166
C          9.53315        33.99767         2.89072
C         10.71112        36.11213         3.54374
C          9.50195        35.39259         3.09128
C         10.69974        37.64059         3.59692
C          9.50632        38.26701         2.90383
C         10.77524        40.35750         2.57043
C          9.59369        39.60602         2.46894
C         10.86900        41.63701         2.03828
C         13.28597        19.64242        -1.54549
C         13.24972        20.83537        -0.85037
C         12.06156        21.60649        -0.71084
C         13.19820        23.50339         0.39961
C         11.96848        22.86171        -0.05813
C         13.26018        24.87594         0.73248
C         12.14879        25.57300         1.23929
C         13.31461        27.69459         1.44505
C         12.02687        26.97883         1.35041
C         13.29616        29.12133         1.84068
C         11.99604        29.78931         2.02323
C         13.29358        31.86520         2.52625
C         12.01758        31.16567         2.34314
C         13.27677        33.15303         3.33571
C         11.99315        33.92855         3.14240
C         13.30330        36.12771         3.35091
C         12.02764        35.36646         3.49127
C         13.30040        37.53007         3.33217
C         12.01718        38.23449         2.92464
C         13.21791        40.54634         3.41205
C         11.97775        39.74047         3.18620
C         13.19003        42.09259         3.10872
C         12.01536        42.46863         2.13154
C         12.83962        44.69805         1.32200
C         11.90749        43.61976         1.34565
C         13.16428        45.53310         0.28635
C         15.85233        15.72463        -3.42793
C         15.77714        17.01052        -2.78874
C         14.59187        17.62728        -2.45611
C         15.76929        19.73706        -1.73788
C         14.54357        18.80805        -1.50820
C         15.77251        20.88061        -0.76504
C         14.51186        21.34636        -0.25080
C         15.78134        23.53872         0.33655
C         14.48542        22.78908         0.34990
C         15.78188        24.92220         0.47280
C         14.50822        25.63939         0.50276
C         15.80308        27.80632         0.99596
C         14.51128        27.11262         0.75954
C         15.74640        29.28549         1.09562
C         14.46746        29.96744         1.47669
C         15.78036        31.87963         2.49645
C         14.47215        31.30696         2.11015
C         15.79365        33.27361         3.08727
C         14.52756        33.99519         3.17968
C         15.78238        36.13936         3.23846
C         14.53811        35.40010         3.26452
C         15.75163        37.56466         3.28077
C         14.51994        38.26245         3.32750
C         15.81521        40.47498         3.31079
C         14.53158        39.74469         3.72671
C         15.81215        41.88042         2.78137
C         14.53816        42.61241         2.59204
C         15.78601        44.48301         1.48213
C         14.67053        43.92184         2.22202
C         15.68017        45.73259         0.77616
C         14.41024        46.30025         0.26883
C         15.57290        48.26922        -0.74060
C         14.39704        47.43507        -0.51416
C         15.60299        49.28267        -1.81384
C         18.31828        11.62061        -4.39829
C         18.31193        13.00997        -4.31150
C         17.10358        13.70128        -4.07028
C         18.35288        15.78405        -3.59026
C         17.05559        15.06539        -3.70641
C         18.34471        17.13907        -2.91005
C         17.06128        17.60675        -2.31543
C         18.33237        19.72626        -1.56231
C         17.06864        18.95189        -1.67897
C         18.27953        20.92033        -0.89207
C         17.04578        21.35254        -0.11717
C         18.25334        23.53304         0.37167
C         17.01956        22.85091         0.14513
C         18.27825        24.95320         0.71656
C         17.04775        25.74078         0.34172
C         18.24782        27.84926         1.20243
C         16.99126        27.13584         0.95304
C         18.28900        29.21562         1.27902
C         17.04977        30.02092         1.21165
C         18.33364        31.95930         2.36675
C         17.04914        31.37526         1.88150
C         18.28687        33.33638         2.87368
C         17.06615        34.00930         3.07151
C         18.27552        36.09800         3.40703
C         17.03940        35.41699         3.24457
C         18.26579        37.53258         3.07464
C         17.00989        38.31175         3.16973
C         18.34653        40.48795         3.05448
C         17.05284        39.67762         3.12600
C         18.20915        41.71361         2.16173
C         17.03800        42.41297         2.10217
C         18.14940        44.29782         0.89522
C         16.98044        43.72779         1.45016
C         18.13892        45.64250         0.47076
C         16.89229        46.32651         0.34910
C         18.10827        48.02184        -1.08798
C         16.88208        47.66629        -0.27505
C         18.06448        49.38473        -1.72884
C         16.77910        49.88017        -2.23708
C         17.95222        51.60684        -3.58220
C         16.77384        51.01753        -3.11925
C         17.99346        52.70429        -4.47773
C         20.67018         7.35453        -4.97054
C         20.68013         8.69072        -4.61994
C         19.48288         9.47988        -4.57258
C         20.81018        11.56365        -4.36937
C         19.52597        10.86454        -4.46306
C         20.85716        12.93921        -4.30085
C         19.60667        13.77548        -4.51747
C         20.82939        15.61490        -3.18395
C         19.60244        15.04334        -3.69974
C         20.83038        17.01016        -2.54882
C         19.58520        17.76418        -2.43932
C         20.83101        19.67570        -1.55576
C         19.59511        19.07761        -1.92228
C         20.83030        21.03298        -0.98508
C         19.50810        21.68900        -0.68110
C         20.71874        23.39299         0.74462
C         19.47042        22.85231         0.21250
C         20.68886        24.82733         1.25424
C         19.43270        25.58743         1.08471
C         20.78606        27.74310         1.11980
C         19.47738        27.02624         1.54597
C         20.76922        29.12501         1.71757
C         19.58921        29.99478         1.33993
C         20.83736        32.00871         2.32276
C         19.50814        31.31238         2.10862
C         20.73981        33.32683         3.06162
C         19.50510        34.03640         3.11988
C         20.78541        36.10073         3.85357
C         19.50178        35.40561         3.50028
C         20.81564        37.61676         3.49739
C         19.56270        38.22011         2.92788
C         20.72603        40.26072         2.22423
C         19.55858        39.67197         2.69524
C         20.70945        41.57417         1.73974
C         19.37037        42.06227         1.24413
C         20.68920        44.25170         0.56242
C         19.39056        43.50860         0.76907
C         20.62503        45.71409         0.36013
C         19.40629        46.31574         0.19909
C         20.57845        48.53048        -0.42027
C         19.33947        47.72895        -0.25866
C         20.51954        49.68410        -1.37507
C         19.23348        50.00491        -2.05229
C         20.51481        51.47314        -3.73399
C         19.23073        50.97492        -3.17472
C         20.54382        52.60114        -4.75953
C         19.18989        53.25367        -5.00183
C         20.45834        54.96799        -6.27816
C         19.21625        54.33827        -5.87686
C         20.51646        55.92649        -7.31188
C         23.06246         4.45556        -5.37186
C         21.91784         5.16769        -5.47088
C         23.08560         7.09023        -4.38899
C         21.96244         6.66537        -5.31761
C         23.12575         8.54729        -4.04634
C         21.94199         9.37902        -4.35834
C         23.34355        11.40128        -4.20635
C         22.01063        10.74665        -4.27580
C         23.43336        12.89356        -4.19620
C         22.14586        13.67533        -4.20809
C         23.38436        15.63584        -3.02668
C         22.14851        15.07760        -3.65939
C         23.35238        16.93016        -2.45730
C         22.12375        17.79367        -2.63254
C         23.28701        19.61819        -1.35971
C         22.08847        19.02688        -1.75216
C         23.29369        21.08608        -0.96410
C         22.04507        21.40241        -0.15095
C         23.20956        23.43456         0.72340
C         22.02713        22.81473         0.38076
C         23.21622        24.77135         1.31911
C         21.98278        25.53888         1.38093
C         23.16629        27.53671         2.13827
C         21.98845        26.91235         1.53257
C         23.28993        29.01922         2.25939
C         22.01586        29.79704         2.08863
C         23.13850        31.69548         3.36979
C         21.84908        31.03316         2.93416
C         22.95450        32.92984         3.91366
C         21.89683        33.87510         3.60800
C         23.28674        35.85355         4.30373
C         22.04262        35.27389         3.96908
C         23.26962        37.93997         3.56779
C         22.04562        38.32156         3.09751
C         23.23988        40.20283         1.97050
C         21.96123        39.39579         2.03733
C         23.23712        41.52998         1.57928
C         21.98274        42.36596         1.72336
C         23.17740        44.27355         0.68825
C         21.98834        43.61683         0.88513
C         23.17616        45.79474         0.62415
C         21.91927        46.38495        -0.07151
C         23.16728        48.46272        -0.68030
C         21.92720        47.93632         0.03760
C         23.10080        49.61696        -1.43906
C         21.81245        50.21140        -1.88820
C         23.04540        51.87206        -3.35164
C         21.82815        51.05534        -3.12732
C         22.91905        53.26390        -3.86398
C         21.60371        53.66442        -4.50184
C         22.80237        55.58281        -5.64408
C         21.62529        54.73136        -5.50510
C         22.90786        56.38023        -6.87195
C         21.75147        56.53916        -7.68229
C         23.08006        57.82640        -9.28323
C         21.85079        57.30822        -8.87544
C         24.31246         5.04930        -4.92169
C         25.52680         6.86725        -3.65703
C         24.34432         6.31168        -4.42045
C         25.59459         8.38475        -3.61637
C         24.43371         9.19071        -3.81334
C         25.73668        11.23057        -3.44866
C         24.52156        10.58672        -3.81051
C         25.78414        12.64257        -3.19992
C         24.73734        13.59350        -3.78162
C         25.69185        15.38634        -2.30364
C         24.56260        14.86131        -2.96404
C         25.67857        16.69519        -1.80360
C         24.51365        17.48786        -1.88227
C         25.70624        19.48050        -1.00923
C         24.52451        18.88397        -1.40828
C         25.82891        20.98294        -0.83212
C         24.54475        21.58798        -0.28970
C         25.71930        23.46538         0.76901
C         24.49455        22.77484         0.41668
C         25.68638        24.73898         1.30593
C         24.43713        25.38800         1.61074
C         25.71319        27.45985         2.47380
C         24.44491        26.72024         2.23615
C         25.65413        28.84135         2.98663
C         24.48207        29.55737         2.98489
C         25.66387        31.81013         3.12858
C         24.44755        30.93691         3.63766
C         25.89037        33.12908         3.89250
C         24.85929        34.00471         4.35408
C         25.78130        36.26208         3.74480
C         24.66892        35.38230         4.15349
C         25.72497        37.54130         3.06284
C         24.52158        38.30034         2.92817
C         25.70053        40.12694         1.78396
C         24.48462        39.52168         2.20256
C         25.68942        41.48453         1.30251
C         24.46732        42.21211         1.26523
C         25.66261        44.26669         0.56428
C         24.44698        43.58921         0.87087
C         25.62079        45.66463         0.12045
C         24.44261        46.39674         0.03875
C         25.61506        48.30960        -1.03556
C         24.42189        47.75150        -0.49491
C         25.66392        49.70179        -1.49979
C         24.30673        50.40642        -1.72832
C         25.46969        52.09760        -3.16303
C         24.29992        51.53014        -2.66083
C         25.38783        53.29741        -3.99356
C         24.17722        53.95137        -4.19952
C         25.40651        55.98635        -5.22232
C         24.10385        55.26604        -4.85817
C         25.35546        56.65463        -6.56604
C         24.18246        56.86705        -7.31211
C         24.23484        57.59145        -8.54173
C         26.80012         9.00274        -3.33244
C         28.08717        11.03074        -2.76072
C         26.88661        10.41712        -3.17415
C         28.11009        12.40201        -2.43886
C         26.90529        13.17804        -2.58189
C         28.17395        15.20882        -1.76941
C         26.84279        14.50497        -1.87826
C         28.18883        16.52919        -1.34735
C         26.86343        17.18001        -0.99790
C         28.22425        19.30779        -0.52971
C         26.95461        18.69665        -1.03975
C         28.15025        20.63823         0.11288
C         27.03222        21.39873        -0.01745
C         28.12301        23.19632         1.38444
C         27.04794        22.85852         0.36831
C         28.11605        24.60218         1.88870
C         26.97295        25.51751         1.47840
C         28.16768        27.36204         2.76776
C         26.88320        26.77237         2.32397
C         28.23232        28.84654         3.00163
C         26.93987        29.57114         3.23593
C         28.21868        31.70788         3.05483
C         26.96946        31.04454         3.09115
C         28.32132        33.10752         3.39128
C         27.15726        33.64746         3.99693
C         28.26705        36.16792         3.28091
C         27.09635        35.77230         3.95539
C         28.20452        37.35693         2.53071
C         26.93653        38.07561         2.46220
C         28.05294        39.90585         1.12996
C         26.89024        39.36029         1.85417
C         28.11419        41.34800         0.83397
C         26.91310        42.14235         0.94923
C         28.17681        44.18909         0.35217
C         26.88331        43.53001         0.63206
C         28.16842        45.59626        -0.17517
C         26.88168        46.33502        -0.27896
C         27.98278        48.12468        -1.69186
C         26.82800        47.57966        -1.08475
C         27.97822        49.40025        -2.31592
C         26.80665        50.20272        -2.27409
C         27.89805        51.91388        -3.67747
C         26.73345        51.42949        -2.97023
C         27.81831        53.09939        -4.44097
C         26.61369        53.84274        -4.57108
C         26.59490        55.07099        -5.22427
C         29.31920        13.04544        -2.06421
C         30.60707        15.05126        -1.42742
C         29.38808        14.43385        -1.78457
C         30.64008        16.39095        -0.97092
C         29.41227        17.13760        -0.91905
C         30.58873        18.97463         0.19335
C         29.41948        18.44460        -0.35053
C         30.54549        20.23007         0.97037
C         29.22507        20.98018         1.13498
C         30.59568        23.08555         1.67625
C         29.40887        22.47323         1.32202
C         30.61200        24.51150         2.01777
C         29.42961        25.21237         2.10671
C         30.70728        27.35202         2.33465
C         29.43614        26.61779         2.54410
C         30.71454        28.84933         2.31442
C         29.37618        29.61225         2.32828
C         30.67364        31.70659         2.93682
C         29.46246        31.02691         2.83619
C         30.72159        33.13247         3.13469
C         29.51731        33.85178         3.31107
C         30.76346        35.97113         2.80746
C         29.56200        35.37719         3.53181
C         30.68005        37.29670         2.22816
C         29.43256        37.89984         1.99425
C         30.60637        39.84069         0.85278
C         29.36698        39.12046         1.17410
C         30.52307        41.12370         0.25217
C         29.31893        41.87113         0.32126
C         30.51647        43.87953        -0.70638
C         29.39632        43.33831         0.12541
C         30.61476        45.36639        -0.87279
C         29.27838        46.00570        -1.09918
C         30.46979        47.90648        -2.33475
C         29.20567        47.29763        -1.83004
C         30.37510        49.18369        -2.94294
C         29.16524        49.91376        -2.97207
C         29.09637        51.16725        -3.61846
C         31.84572        17.01186        -0.55078
C         33.07098        18.97294         0.33374
C         31.84681        18.29444         0.02705
C         33.11456        20.28579         0.81951
C         31.85233        20.92650         1.26131
C         33.07285        23.01053         1.76495
C         31.86545        22.37412         1.57805
C         33.10525        24.39549         2.28821
C         31.87481        25.19225         2.29301
C         33.18168        27.31005         2.49267
C         31.94437        26.56519         2.51244
C         33.17881        28.77417         2.64996
C         31.97967        29.49806         2.71205
C         33.24212        31.67280         3.25386
C         31.93216        30.92527         3.08063
C         33.18847        33.12439         2.96266
C         31.99427        33.83495         3.04013
C         33.26446        36.05901         2.77428
C         31.96411        35.27615         2.81690
C         33.16507        37.33639         1.97491
C         31.90624        37.93520         1.75873
C         33.08842        39.98273         0.94596
C         31.83923        39.22447         1.14478
C         33.04383        41.28572         0.19068
C         31.74761        41.60299        -0.51822
C         33.00519        43.74396        -1.30517
C         31.72085        43.05440        -0.97034
C         32.98956        45.06169        -1.73625
C         31.81600        45.93298        -1.56067
C         31.66911        47.21076        -2.27120
C         34.31399        21.00769         0.98447
C         35.54794        23.06013         1.49699
C         34.33591        22.34581         1.46081
C         35.63763        24.46458         1.74106
C         34.42910        25.16948         2.24199
C         35.56592        27.40098         1.87665
C         34.36382        26.63285         2.23420
C         35.63709        28.79817         2.35781
C         34.45051        29.44971         2.72727
C         35.77694        31.58309         2.74884
C         34.56009        30.86440         3.27626
C         35.70461        33.00595         2.39551
C         34.39885        33.79134         2.44826
C         35.64986        35.87448         1.93132
C         34.46455        35.24361         2.37708
C         35.62775        37.26094         1.56445
C         34.38293        37.96292         1.52462
C         35.55911        39.91588         0.54251
C         34.36886        39.28252         1.02541
C         35.49764        41.17126        -0.14362
C         34.29089        41.81838        -0.41746
C         34.22085        43.02002        -1.15177
C         36.81259        25.16813         1.56291
C         38.09762        27.38442         1.71018
C         36.84630        26.63984         1.57869
C         38.10139        28.74840         1.94174
C         36.90107        29.46110         2.33769
C         38.31685        31.55460         2.64003
C         36.95361        30.87963         2.54473
C         38.28284        33.06964         2.41284
C         36.96214        33.80029         2.38454
C         38.09830        35.83102         1.51264
C         36.89158        35.17555         1.87304
C         38.05574        37.18474         1.14195
C         36.83213        37.90391         1.14052
C         36.78320        39.23158         0.65386
C         39.32001        29.49704         1.69368
C         40.56520        31.59816         1.45222
C         39.39956        30.84990         1.86061
C         40.58844        32.96101         1.42270
C         39.42699        33.75126         1.76563
C         39.33251        35.07991         1.42584
O         16.27842        48.72112         0.49833
O         13.62549        44.80563         2.47754
O         20.63207        37.15072         4.85740
O         29.20542        44.03822         1.39692
O         15.87966        32.04442         3.95024
O         14.85209        29.87145         0.07095
O         33.03201        41.31971         1.63049
O         33.92786        24.56344         3.48366
O         19.88256        50.29076        -4.34849
O         19.67341        48.74495         0.73030
O         12.27354        40.24710         4.51058
O         21.89823        54.02668        -3.12542
O         26.58715        16.74213         0.33105
O         21.10938        50.91971        -0.80336
O         23.27751        37.18370         4.74848
O         17.10231        17.73510        -0.84590
O         37.76802        33.73118         3.61710
O         23.05335        29.77524         1.01754
O         22.74713         7.51254        -3.03989
O         16.03969        41.61618         4.23703
O         31.52807        46.08663        -0.03373
O         18.97660        37.58486         1.71422
O         19.98962        43.56922        -0.57891
O         27.83835        46.55295         0.86763
O         35.98645        27.21526         0.48180
O         18.32067        17.06179        -4.37752
O          7.43301        31.18868         3.58234
O         27.84304        29.17000         4.35345
O         17.05926        31.25289         0.42545
O         22.20430        14.86046        -5.10246
O         27.89922        19.29689        -1.98436
O         23.54443        26.86130         3.38273
O         31.18499        20.09987         2.29250
O         27.69574        23.50555         2.75034
O         28.46097        39.02710         0.02025
O         20.84801        15.81698        -1.70732
O         20.59711        23.71003         2.19373
O         30.80067        28.08209         1.04574
O         20.29856        22.03267        -1.89985
O         11.90598        38.02615         1.56016
O         14.33055        26.64677        -0.61716
O         32.46338        31.26710         4.43045
O         11.11623        24.81112         1.77152
O         28.84139        26.68683         3.89418
O         28.89376        45.99613        -2.50689
O         11.30896        35.59110         4.77598
O         23.61867        12.17017        -5.46039
O         23.78895        33.34852         4.95654
O         13.62772        28.08622         2.83935
O         30.67409        43.21286        -2.00311
O         25.12276        50.65397        -0.54148
O         22.72744        50.70183        -4.22708
O         34.90395        33.16957         1.17227
O         14.50035        21.59668         1.20263
O         23.15042        56.22040        -4.32728
O         23.16341        46.10216         2.04233
H         23.04148        47.08213         2.13790
O         22.06415        42.89805         3.10842
H         22.76073        43.59187         3.12434
O         29.85868        35.58742         4.94597
H         30.59740        34.99136         5.19318
O         22.14964        18.29874        -4.00354
H         22.92841        18.88638        -4.10089
O         14.62023        39.65253         5.16806
H         14.79689        40.55955         5.50450
O         26.75502         6.32245        -4.14193
H         26.85152         6.56849        -5.08445
O         22.03259        46.11321        -1.49312
H         21.71395        45.20122        -1.66571
O         17.16736        26.00167        -1.09876
H         16.31657        26.41233        -1.38250
O         22.05582        20.51817         0.99949
H         21.48780        20.89684         1.70319
O         20.81345        27.82469        -0.32901
H         20.44014        28.70592        -0.58826
O         14.60158        18.27989        -0.15895
H         15.47765        17.82992        -0.05647
O         25.63873        57.01285        -4.20490
H         24.75142        57.32448        -3.91279
O         27.44781        23.51342        -0.89135
H         27.46240        24.49610        -0.73623
O         19.62620        14.17359        -5.92710
H         20.48992        14.63058        -6.07334
O         27.35628        26.02776         0.14206
H         26.64324        26.62255        -0.17624
O         12.91146        42.75057         4.35137
H         12.31844        42.15041         4.86203
O         19.54226        26.97458         2.99891
H         18.94073        26.27203         3.32286
O         21.80284        38.76808         0.72874
H         20.88523        38.42002         0.66893
O         23.22243        21.83005        -2.21075
H         24.13221        21.81256        -2.60164
O         31.78912        40.80212        -1.73262
H         31.12145        41.18369        -2.34642
O         26.53009        14.16943        -0.47942
H         26.50809        15.04981         0.02148
O         18.16468        47.07801        -2.19882
H         17.54204        47.37678        -2.89471
O         28.93205        29.75164         0.94379
H         29.49856        29.15432         0.39621
O         33.49065        36.46036         4.18407
H         32.76896        37.07553         4.43722
O         20.94830        52.00701        -6.01969
H         20.55220        51.10581        -6.04569
O         13.26969        32.72698         4.74011
H         14.14319        32.29734         4.90591
O         10.65236        38.05021         4.95748
H         11.09458        37.34949         5.49305
O         18.61437        40.98058         4.40088
H         17.78025        41.41278         4.71641
O         17.14276        20.68778         1.19051
H         16.27032        20.82619         1.63387
O         21.23580        30.56203         4.16769
H         21.89193        30.02879         4.66592
O         19.09532        41.24263         0.05672
H         19.51637        41.70830        -0.70449
O         22.36759         7.20252        -6.63010
H         21.70940         6.90346        -7.29223
O         25.31396        32.18798         1.76695
H         26.13564        32.41634         1.28419
O         15.64152        20.24453        -3.09768
H         16.41032        20.82237        -3.28939
O         24.58976        30.70777         5.04876
H         24.47434        31.57339         5.50526
O         27.27667        34.73178         4.88089
O         21.35177        32.36153         0.99501
H         20.82925        33.12044         0.65823
O         22.09945        48.35826         1.40746
H         21.21642        48.65668         1.73695
O         25.35190        14.06225        -5.01787
H         25.05034        13.45359        -5.73212
O         25.97619        21.54982        -2.18474
H         26.54571        22.35467        -2.08791
O         38.69841        31.35512         4.03162
H         38.21144        32.02998         4.55871
O         28.64216        20.52667         2.38755
H         29.38688        20.40884         3.02248
O         34.89032        30.67240         4.69468
H         34.03253        30.53953         5.16504
O         19.86447        30.37251        -0.06540
H         20.62707        31.00770        -0.03198
H          4.93825        31.52524         1.45871
H          4.99241        33.94518         1.90337
H          7.45607        27.37831         0.63207
H          6.25510        29.40121         1.03292
H          6.18510        35.98215         2.36930
H          7.42767        38.06010         2.38735
H         10.00620        23.16766        -0.93703
H          8.63718        25.59861        -0.35319
H          8.71542        40.06355         1.98591
H          9.99828        42.03221         1.49001
H         12.36810        19.24326        -2.00370
H         11.14196        21.19628        -1.15546
H         11.06486        43.66379         0.63581
H         12.50263        45.60877        -0.58944
H         14.90783        15.18977        -3.61374
H         13.64077        17.16910        -2.77091
H         13.46396        47.71031        -1.02911
H         14.64116        49.63936        -2.21250
H         17.36364        11.07498        -4.33562
H         16.16515        13.12379        -4.07062
H         15.80320        51.43077        -3.43132
H         17.03923        53.16504        -4.77729
H         19.71390         6.85808        -5.19885
H         18.51016         8.97726        -4.68267
H         18.27392        54.77753        -6.23732
H         19.61308        56.14930        -7.89745
H         23.05821         3.37468        -5.57598
H         20.97702         4.68620        -5.77802
H         23.14251        58.40424       -10.21603
H         20.95414        57.46003        -9.49276
H         25.21813         4.42619        -4.90110
H         25.42302         6.51419        -2.59212
H         26.29846        57.07339        -6.94872
H         25.20352        57.97463        -8.89279
H         27.69847         8.38800        -3.17498
H         28.99710        10.42430        -2.63990
H         28.72547        53.47369        -4.93837
H         27.52863        55.45680        -5.66029
H         30.24005        12.44430        -2.00310
H         31.53476        14.45966        -1.43520
H         31.27655        49.62978        -3.38872
H         29.99045        51.55167        -4.13166
H         32.79699        16.47238        -0.66943
H         34.01791        18.46266         0.10034
H         33.93101        45.52678        -2.06733
H         32.56482        47.64812        -2.73816
H         35.26615        20.53105         0.70620
H         36.46696        22.53478         1.19458
H         36.43253        41.58814        -0.54630
H         35.15757        43.48924        -1.48833
H         37.73612        24.62899         1.30167
H         39.04744        26.86038         1.52512
H         38.97906        37.69402         0.82932
H         37.70565        39.70741         0.29076
H         40.16016        28.95772         1.22887
H         41.44051        31.03116         1.10120
H         41.47913        33.48889         1.05185
H         40.20406        35.58089         0.97755
