         430
 CSIRO Nanostructure Databank - Neutral Graphene Oxide Data Set
C         27.82106        27.39783        -0.12272
C         27.81060        28.81232         0.07692
C         26.61493        29.55706         0.19298
C         27.79883        31.67375         0.56032
C         26.61649        30.94777         0.37270
C         27.84746        33.11434         0.71252
C         26.66407        33.86859         0.82049
C         27.89894        35.97089         0.84262
C         26.69504        35.26208         0.88315
C         27.86073        37.47659         0.76699
C         26.87860        38.12562         1.71169
C         28.08998        40.24334         1.50918
C         26.96317        39.44961         1.96937
C         28.11377        41.65582         1.59679
C         26.96116        42.41128         2.00066
C         28.15203        44.50966         1.64545
C         26.97960        43.77897         2.02442
C         28.17436        45.91822         1.65665
C         30.27045        27.37369        -0.20084
C         29.00457        26.70529        -0.21733
C         30.26375        28.79277        -0.03776
C         29.06455        29.48758         0.15493
C         30.34920        31.67283         0.56679
C         29.05753        30.90865         0.56999
C         30.33681        33.14641         0.58584
C         29.09938        33.83156         0.70053
C         30.38195        35.96010         0.64347
C         29.12451        35.26259         0.74428
C         30.40347        37.40974         0.64946
C         29.21464        38.13352         0.86842
C         30.47219        40.24409         0.81874
C         29.25189        39.53776         1.05430
C         30.48814        41.66500         0.87063
C         29.30508        42.37141         1.23344
C         30.50397        44.51017         0.87426
C         29.32221        43.79473         1.25148
C         30.49050        45.93648         0.88019
C         29.31769        46.61087         1.27923
C         32.75537        24.58643        -0.58111
C         31.56317        25.26357        -0.47973
C         32.77667        27.39731        -0.30624
C         31.51592        26.67840        -0.34405
C         32.79824        28.79370        -0.19497
C         31.53551        29.53000        -0.20375
C         32.82647        31.74680         0.15869
C         31.55539        31.02326        -0.02674
C         32.81019        33.07188         0.48750
C         31.56644        33.82092         0.57179
C         32.86960        35.95030         0.48141
C         31.59760        35.25125         0.58491
C         32.87714        37.37509         0.32637
C         31.63589        38.10347         0.46620
C         32.84963        40.25075         0.17087
C         31.65396        39.52439         0.48669
C         32.84962        41.63410         0.14634
C         31.67701        42.37565         0.51287
C         32.89548        44.51209         0.17472
C         31.68126        43.79337         0.49918
C         32.88795        45.94558         0.18958
C         31.68777        46.66248         0.48140
C         32.83038        48.74394        -0.06839
C         31.68588        48.05871         0.34823
C         35.32438        23.26764        -1.24089
C         35.25396        24.55210        -0.75430
C         34.00557        25.28221        -0.59653
C         35.27885        27.43940        -0.76359
C         34.01247        26.67204        -0.44868
C         35.32430        28.84713        -0.24312
C         34.05958        29.53829         0.19336
C         35.34298        31.70719         0.16296
C         34.07248        31.00954        -0.26695
C         35.32621        33.04219         0.46393
C         34.07948        33.78348         0.86643
C         35.32728        35.94778         0.40602
C         34.08937        35.25260         0.50087
C         35.33219        37.37250         0.21306
C         34.09172        38.05990         0.12985
C         35.35096        40.24687        -0.10512
C         34.06001        39.49591        -0.32990
C         35.34132        41.63326        -0.18125
C         34.03674        42.34926        -0.45779
C         35.30504        44.52154        -0.29913
C         34.07689        43.82114        -0.13989
C         35.29903        45.93196        -0.36033
C         34.07367        46.65435        -0.17012
C         35.21184        48.81154        -0.86894
C         34.02533        48.06969        -0.30809
C         35.39833        50.20704        -0.30992
C         37.77718        23.17852        -1.07074
C         36.56163        22.58010        -1.38185
C         37.78802        24.52728        -0.57914
C         36.49673        25.20915        -0.22041
C         37.75776        27.36920        -0.36487
C         36.54855        26.69344        -0.44975
C         37.78374        28.81257        -0.33353
C         36.53599        29.53013        -0.20776
C         37.81328        31.60874         0.13785
C         36.58233        30.96026         0.05313
C         37.87449        33.03215         0.51056
C         36.57734        33.78707         0.69330
C         37.79645        35.93140         0.34586
C         36.57462        35.25053         0.48330
C         37.80297        37.37001         0.25977
C         36.57279        38.08326         0.18917
C         37.78359        40.25255         0.12611
C         36.57869        39.53425         0.07585
C         37.80219        41.66403        -0.05408
C         36.56465        42.37143        -0.18246
C         37.78845        44.49517        -0.40495
C         36.55838        43.79019        -0.32946
C         37.78938        45.91524        -0.60042
C         36.53203        46.65300        -0.61391
C         37.70941        48.77943        -1.13316
C         36.49583        48.02814        -0.78488
C         37.76491        50.23635        -0.94531
C         36.57122        50.87210        -0.43057
C         40.40608        20.92913        -2.58860
C         39.16074        21.41677        -2.21102
C         40.24991        23.09770        -0.83264
C         39.06351        22.54329        -1.36923
C         40.22840        24.40889        -0.08068
C         38.98031        25.20850        -0.35540
C         40.24020        27.33260        -0.25213
C         39.00893        26.63638        -0.26014
C         40.25810        28.76348        -0.28641
C         39.02071        29.49262        -0.26576
C         40.27113        31.62708        -0.18864
C         39.04471        30.91818        -0.10890
C         40.28483        33.08845        -0.08919
C         39.09014        33.79603         0.21014
C         40.27149        35.93443         0.11193
C         39.05303        35.21056         0.24996
C         40.26881        37.37208         0.14680
C         39.04623        38.06861         0.23411
C         40.30775        40.25490         0.03973
C         39.05847        39.55047         0.50685
C         40.29955        41.65518        -0.11838
C         39.04111        42.37668        -0.13794
C         40.27579        44.50205        -0.39760
C         39.03516        43.78044        -0.32896
C         40.24941        45.89910        -0.52816
C         39.02104        46.59229        -0.69626
C         40.25063        48.82318        -0.96276
C         39.03732        48.01628        -1.07613
C         40.22197        50.17600        -1.20997
C         38.97437        50.91467        -1.15390
C         40.23995        53.03379        -1.06480
C         39.04870        52.35841        -1.09998
C         42.88627        21.12676        -2.58116
C         41.58242        21.45579        -2.02354
C         42.69233        22.97125        -0.27187
C         41.48542        22.47047        -1.04314
C         42.74023        24.49092        -0.32648
C         41.50937        25.19160        -0.30394
C         42.72958        27.31671        -0.23173
C         41.49484        26.60038        -0.27223
C         42.73942        28.74941        -0.23833
C         41.48918        29.48171        -0.32589
C         42.74283        31.62649        -0.61217
C         41.47458        30.90332        -0.38306
C         42.77408        33.16011        -0.63953
C         41.47956        33.81439        -0.21238
C         42.74562        35.93988        -0.05393
C         41.49346        35.22028        -0.04011
C         42.73992        37.36604        -0.06286
C         41.51423        38.08521         0.03007
C         42.75507        40.21447        -0.22159
C         41.52222        39.52062        -0.04180
C         42.76267        41.63786        -0.32286
C         41.53284        42.36228        -0.28622
C         42.77355        44.48516        -0.45696
C         41.54519        43.79337        -0.37132
C         42.80777        45.93965        -0.49110
C         41.51405        46.66130        -0.39889
C         42.76829        48.86702        -0.81668
C         41.50488        48.14700        -0.58796
C         42.76648        50.18358        -1.16759
C         41.49890        50.90609        -1.56509
C         42.70624        53.02215        -1.03398
C         41.50082        52.35951        -1.14822
C         44.01263        21.62517        -2.04166
C         45.25394        23.02864        -0.38533
C         44.00345        22.21149        -0.64598
C         45.16159        24.38634         0.25621
C         43.94561        25.17839        -0.15166
C         45.19266        27.30450         0.10192
C         43.95873        26.59971        -0.10633
C         45.19108        28.72672         0.10249
C         43.96517        29.42566        -0.08613
C         45.24166        31.62573         0.06422
C         44.02327        30.87889        -0.32616
C         45.22560        33.01812         0.12904
C         43.90394        33.74082         0.23525
C         45.20037        35.90286        -0.09916
C         43.97768        35.23346        -0.00858
C         45.21639        37.34167        -0.22208
C         43.98377        38.06673        -0.16704
C         45.22464        40.18445        -0.37300
C         43.98964        39.48766        -0.25507
C         45.23555        41.61103        -0.47214
C         44.00391        42.33432        -0.45518
C         45.25343        44.45150        -0.56625
C         44.01830        43.76347        -0.50202
C         45.29741        45.93242        -0.29073
C         43.98379        46.64171        -0.51244
C         45.17795        48.70791        -1.30828
C         44.04778        48.16048        -0.42696
C         45.25938        50.21757        -1.26920
C         44.01233        50.94927        -1.21335
C         43.94687        52.33478        -1.13918
C         47.68067        23.08201        -0.13523
C         46.46971        22.41049        -0.46628
C         47.70847        24.43895         0.17811
C         46.45253        25.16819         0.21639
C         47.65586        27.29330         0.59025
C         46.41429        26.55202         0.26738
C         47.69471        28.74789         0.26236
C         46.41262        29.48920         0.25878
C         47.65711        31.61750         0.82928
C         46.43612        30.87697         0.30930
C         47.68156        33.07851         0.44329
C         46.44910        33.75767         0.22756
C         47.67972        35.84569        -0.07634
C         46.45337        35.17079         0.01491
C         47.69923        37.24278        -0.62988
C         46.43830        38.03477        -0.35946
C         47.68568        40.17382        -0.55624
C         46.45481        39.45462        -0.42293
C         47.70894        41.58467        -0.58096
C         46.47262        42.30862        -0.56556
C         47.72705        44.43497        -0.70657
C         46.47852        43.73991        -0.62769
C         47.74245        45.85677        -1.19299
C         46.49512        46.64418        -0.88204
C         47.74292        48.72416        -1.27449
C         46.49756        47.99467        -1.08796
C         47.69901        50.09093        -1.48948
C         46.48003        50.82540        -1.46574
C         50.20449        24.51758         0.14891
C         48.97727        25.13106         0.33893
C         50.24671        27.32961         0.65737
C         48.97163        26.56651         0.68352
C         50.23833        28.73167         0.71037
C         48.99837        29.47226         0.37108
C         50.16136        31.61398         0.71955
C         48.98419        30.93626         0.56551
C         50.12136        33.09334         1.04186
C         48.88259        33.78346         0.50603
C         50.14211        35.90566         0.23616
C         48.90334        35.18067         0.20758
C         50.14884        37.32838        -0.01241
C         48.95900        37.99135        -0.30923
C         50.25246        40.19260        -0.51625
C         48.94571        39.41902        -0.64744
C         50.18640        41.64943        -0.35433
C         48.95612        42.31743        -0.50620
C         50.18999        44.47973        -0.43284
C         48.94288        43.75337        -0.55188
C         50.19964        45.92107        -0.56699
C         49.00478        46.61721        -0.87642
C         50.21885        48.72183        -0.86679
C         49.00151        48.01652        -1.03135
C         51.42279        25.21199         0.34480
C         52.73626        27.25535         0.95726
C         51.46428        26.57344         0.61871
C         52.68526        28.79210         1.16058
C         51.43008        29.49931         0.87857
C         52.66561        31.64154         0.94818
C         51.43293        30.90750         0.79707
C         52.65612        33.11117         0.84873
C         51.40539        33.81614         0.72906
C         52.58842        35.96963         0.52176
C         51.37259        35.21360         0.48241
C         52.58600        37.36826         0.48747
C         51.38822        38.07388         0.14159
C         52.61473        40.22342         0.23808
C         51.43514        39.46903        -0.03259
C         52.58304        41.63615         0.20935
C         51.38878        42.35560        -0.06658
C         52.61296        44.53088         0.07136
C         51.37852        43.79814        -0.12222
C         52.63957        45.94653        -0.08286
C         51.41363        46.64850        -0.40421
C         51.39016        48.05359        -0.56894
C         55.17857        27.43994         0.71270
C         54.03630        26.69808         0.59557
C         55.15935        28.84576         0.98553
C         53.94255        29.54034         1.07341
C         55.15997        31.72471         1.39496
C         53.88667        30.96739         1.07733
C         55.20219        33.10729         0.73142
C         53.85745        33.79728         0.77356
C         54.83026        35.96532         1.59942
C         53.92111        35.28083         0.56259
C         54.96633        37.43741         1.22880
C         53.81051        38.11114         0.74881
C         55.06292        40.22454         0.73322
C         53.83749        39.51839         0.58143
C         55.09632        41.67981         0.29596
C         53.79806        42.37254         0.72321
C         55.01432        44.54513         0.55059
C         53.80746        43.84507         0.39274
C         55.03089        45.94804         0.39676
C         53.86637        46.63133         0.09224
C         56.40042        29.59553         0.95350
C         56.41254        30.93472         1.10260
C         56.28641        33.94895         1.37321
C         56.13741        35.22707         1.73303
C         56.13537        38.16109         1.44225
C         56.19845        39.53143         1.13995
C         56.29903        42.47096         0.76319
C         56.24135        43.81291         0.84993
O         52.65892        27.86014         2.28936
O         48.18118        26.91790         1.90139
O         41.46694        47.57067         0.79010
O         48.47013        29.03712        -0.96436
O         29.87270        31.08203         1.81561
O         49.76252        39.74199        -1.83679
O         38.35085        48.28201        -2.35676
O         37.34147        33.32881         1.86656
O         43.54937        31.12154        -1.72961
O         31.39527        30.49976        -1.39751
O         55.11434        41.67763        -1.15736
H         55.92479        41.21354        -1.45248
O         42.46961        22.68737         1.15570
H         43.20931        23.15173         1.63139
O         39.10996        39.64987         1.99165
H         39.91763        39.17545         2.28448
O         27.37140        37.77737        -0.59332
H         27.33232        38.75441        -0.67462
O         34.07911        31.01945        -1.71885
H         33.16355        30.77231        -2.00719
O         53.75095        42.27377         2.18103
H         52.95783        42.75951         2.48989
O         54.56359        35.50744        -0.74474
H         53.86735        35.43913        -1.43231
O         33.90838        39.43997        -1.80659
H         33.09702        38.92076        -1.99567
O         43.47015        33.53935         1.61611
H         44.19211        33.83561         2.20944
O         35.25932        27.55792        -2.24847
H         35.88520        28.27297        -2.49462
O         34.92795        48.98285        -2.30273
H         35.77632        49.19352        -2.74890
O         33.84028        42.27295        -1.91209
H         33.87372        41.31113        -2.14926
O         42.99683        33.58105        -2.00043
H         43.44650        32.83222        -2.46036
O         44.77864        48.35812        -2.67127
H         45.35730        48.84711        -3.29278
O         49.97091        33.13803         2.52049
H         50.14182        34.06158         2.80584
O         55.13823        31.97826         2.83299
H         55.03922        31.11481         3.28681
O         41.51137        50.93005        -3.03690
H         40.67507        51.35147        -3.32832
O         40.16341        24.13233         1.35684
H         40.93007        23.53415         1.55698
O         55.55338        32.92273        -0.66441
H         55.50617        33.81964        -1.07471
O         47.72973        45.71541        -2.66935
H         47.76312        46.62052        -3.04687
O         47.51220        31.59802         2.29314
H         48.29658        32.07838         2.65898
O         47.73120        37.06798        -2.10377
H         48.03070        37.91862        -2.49318
O         44.09222        21.03765         0.21356
H         43.38201        21.13267         0.89352
O         34.06080        29.57992         1.65503
H         34.14571        28.66226         1.98944
O         36.39020        25.06534         1.25872
H         37.29660        25.16786         1.62511
O         44.32306        48.49504         0.96623
H         43.49086        48.30768         1.45956
O         34.10065        33.76108         2.33792
H         35.03317        33.86235         2.62860
O         44.90304        24.07584         1.70063
H         45.72837        23.67928         2.05691
O         54.13590        35.90351         2.87051
H         54.74877        36.21189         3.56934
O         45.54854        46.03011         1.16534
H         45.34599        46.96794         1.41350
H         26.86306        26.86073        -0.17770
H         25.65290        29.03159         0.10713
H         25.64731        31.46590         0.37688
H         25.68886        33.36413         0.84551
H         25.74395        35.81020         0.93316
H         26.03027        37.54270         2.09880
H         26.19124        39.93053         2.58734
H         26.04023        41.88268         2.28181
H         26.08379        44.33965         2.32895
H         27.27556        46.47037         1.96683
H         28.96563        25.61475        -0.34107
H         29.29502        47.70835         1.30519
H         32.74584        23.49099        -0.66240
H         30.62949        24.68566        -0.49580
H         32.76848        49.83026        -0.21881
H         30.77029        48.63612         0.53083
H         34.41463        22.75868        -1.59078
H         34.52927        50.73504         0.10840
H         36.53918        21.56299        -1.79652
H         36.63549        51.91423        -0.08439
H         40.48023        20.12730        -3.33694
H         38.25580        20.97036        -2.64519
H         40.23992        54.12869        -0.95151
H         38.11251        52.93054        -1.04277
H         42.91335        20.55950        -3.52388
H         42.71492        54.10753        -0.85218
H         44.98974        21.42851        -2.50755
H         44.87079        52.92865        -1.10311
H         48.61398        22.50776        -0.19682
H         46.52516        21.36382        -0.79779
H         48.62886        50.66177        -1.61435
H         46.54448        51.91927        -1.55672
H         50.26458        23.45283        -0.11307
H         50.24396        49.81483        -0.96784
H         52.35758        24.63776         0.28680
H         52.31117        48.63945        -0.45346
H         56.14928        26.97794         0.47851
H         54.09015        25.67914         0.18676
H         55.97582        46.49611         0.52121
H         53.91054        47.72294        -0.01537
H         57.33661        29.04196         0.78520
H         57.36940        31.47579         1.08004
H         57.26478        33.46603         1.52166
H         56.98374        35.74765         2.20930
H         57.04200        37.66688         1.81702
H         57.16049        40.04774         1.26046
H         57.25828        41.95987         0.93296
H         57.13691        44.39577         1.11495
