         717
 CSIRO Nanostructure Databank - Neutral Graphene Oxide Data Set
C         23.79775        27.33615         3.21448
C         23.79872        28.71100         3.24929
C         23.78642        31.66372         3.23475
C         23.69523        33.04841         3.12547
C         23.36382        36.07868         2.02461
C         23.44554        37.43405         1.92520
C         23.57888        40.49754         1.78106
C         23.70451        41.84951         1.80784
C         23.91835        44.69304         2.52239
C         24.02233        45.98731         3.02623
C         25.91089        24.50694         1.97694
C         24.86212        25.20583         2.55171
C         25.96546        27.34072         2.04306
C         24.87014        26.62370         2.60322
C         25.91885        28.78461         1.99837
C         24.82966        29.46184         2.61806
C         25.61069        31.57977         1.60005
C         24.74382        30.90197         2.51054
C         25.22959        32.91174         1.31540
C         24.42016        33.71955         2.11679
C         25.87393        35.95458         1.71412
C         24.56528        35.22991         2.08614
C         25.87732        37.43829         1.60360
C         24.70052        38.14558         1.81286
C         26.11150        40.33685         1.82563
C         24.73829        39.62292         1.99829
C         26.15442        41.79664         1.64282
C         24.98700        42.54092         1.85516
C         26.37466        44.68694         2.04677
C         25.04509        43.95963         2.11458
C         26.45270        45.90576         2.93248
C         25.29228        46.59856         3.27097
C         26.53145        48.65344         3.76322
C         25.36141        47.96820         3.74575
C         27.91425        23.13741         0.12960
C         28.12663        24.31754         0.88652
C         27.07147        25.15898         1.50465
C         28.20528        27.40732         1.13428
C         27.10743        26.60238         1.57111
C         28.10143        28.81515         0.87487
C         26.94682        29.54775         1.34393
C         27.99095        31.67576         0.59031
C         26.83667        30.95491         1.10143
C         28.10389        33.08888         0.44927
C         26.97991        33.98174         0.59877
C         28.30614        35.93849         0.99616
C         27.05413        35.23944         1.14986
C         28.31913        37.31933         1.00305
C         27.14399        38.11364         1.33298
C         28.46795        40.24564         0.93308
C         27.22631        39.50112         1.37915
C         28.63464        41.55818         1.65980
C         27.49080        42.51024         1.42950
C         28.90652        44.42443         2.36553
C         27.53081        43.73351         2.37915
C         28.98555        45.93879         2.49105
C         27.77524        46.47852         3.18697
C         29.05694        48.65465         2.98768
C         27.81207        47.95483         3.54877
C         28.63162        49.87499         2.20358
C         30.26853        23.03402        -0.59388
C         28.96641        22.47904        -0.52327
C         30.47934        24.22447         0.12214
C         29.47158        24.71656         0.95234
C         30.46327        27.34942         0.16737
C         29.52973        26.87665         1.03858
C         30.21475        28.67873        -0.48627
C         29.17656        29.47235         0.27727
C         30.51376        31.59469        -0.12555
C         29.34101        30.92523         0.62346
C         30.53147        33.06796        -0.19052
C         29.34138        33.76932         0.29144
C         30.58964        35.83528         0.00633
C         29.43334        35.18338         0.44060
C         30.84152        37.21824         0.56307
C         29.54193        38.02090         0.45629
C         30.92193        40.10844         0.69941
C         29.69720        39.36063         1.15350
C         30.99277        41.44230         0.96714
C         30.02600        42.04169         1.98867
C         31.40774        44.25485         1.79974
C         30.13356        43.56993         2.16817
C         31.52407        45.67213         2.27783
C         30.33866        46.42394         2.92699
C         30.87676        48.28400         1.18680
C         29.91793        47.66059         2.15966
C         30.63081        49.74724         0.78648
C         29.37919        50.40288         1.23366
C         32.37868        20.80129        -2.77974
C         31.27136        21.38587        -2.18218
C         32.75140        22.99069        -1.09883
C         31.43508        22.47772        -1.31190
C         32.96005        24.29811        -0.34096
C         31.64590        25.05614        -0.28953
C         32.91226        27.28318        -0.32425
C         31.60565        26.54522        -0.33234
C         32.85450        28.75944        -0.62726
C         31.52451        29.45024        -0.65547
C         32.61176        31.55234        -1.59916
C         31.30065        30.84946        -1.21757
C         32.69402        33.02564        -1.46701
C         31.33787        33.73855        -1.34826
C         32.71262        35.97520        -1.39128
C         31.46766        35.23751        -1.01027
C         33.13762        37.23671        -0.63301
C         31.96613        38.01027        -0.07902
C         33.10201        40.17943        -0.50296
C         32.01218        39.37661         0.06413
C         33.17140        41.53395        -0.27032
C         32.36234        42.11383         0.88274
C         33.59825        44.28838         0.60089
C         32.32491        43.63209         0.99175
C         33.75504        45.74950         0.95281
C         32.61465        46.47901         1.61110
C         33.21792        48.55749         0.34260
C         32.28654        47.82909         1.11320
C         32.99342        49.94566         0.07722
C         31.80390        50.58555         0.46816
C         32.88682        52.77265         0.19361
C         31.76735        51.99871         0.52577
C         35.68038        18.56328        -2.21954
C         35.65172        19.94879        -2.25417
C         33.67350        21.24502        -2.46406
C         35.29626        22.85010        -1.14969
C         33.90451        22.36920        -1.64314
C         35.38276        24.37415        -1.14920
C         34.07099        25.12142        -1.03946
C         35.49944        27.30146        -0.59421
C         34.19082        26.52451        -0.44494
C         35.30315        28.66913        -1.20189
C         33.95882        29.23899        -1.58883
C         35.15192        31.58108        -1.82951
C         33.90903        30.77765        -1.78510
C         35.11112        32.95222        -1.99836
C         33.86187        33.68041        -1.78997
C         35.07037        35.91218        -2.35956
C         33.82840        35.16159        -2.00608
C         35.08700        37.41438        -2.27683
C         34.04662        38.10895        -1.47857
C         35.11289        40.26399        -2.02669
C         34.06350        39.46901        -1.33721
C         35.07434        41.75708        -1.96430
C         33.97806        42.47599        -1.15901
C         35.54650        44.49811        -0.95571
C         34.46002        43.71515        -0.43908
C         35.72624        45.87774        -0.61249
C         34.90139        46.60312         0.43347
C         35.46297        48.74261        -0.69648
C         34.51997        48.00662        -0.01879
C         35.20021        50.08151        -1.25663
C         33.98215        50.75896        -0.66671
C         35.22918        52.95412        -0.68767
C         34.01928        52.21166        -0.41675
C         35.43145        54.21471        -0.14560
C         37.85850        18.64518        -1.14745
C         36.76322        17.91803        -1.59645
C         37.86237        20.08071        -1.22899
C         36.67425        20.74575        -1.67451
C         37.78208        22.89538        -1.53856
C         36.58922        22.17858        -1.63076
C         37.76077        24.34612        -1.95111
C         36.53196        25.09386        -1.41514
C         37.74431        27.25734        -1.72607
C         36.58710        26.53496        -1.34054
C         37.74951        28.65959        -1.79759
C         36.54785        29.46743        -1.33153
C         37.70297        31.56457        -2.15983
C         36.40649        30.81266        -2.02097
C         37.68218        33.03804        -1.99365
C         36.38144        33.69852        -2.31263
C         37.62374        35.97168        -2.10843
C         36.39335        35.19397        -2.43361
C         37.65767        37.33529        -2.28312
C         36.40586        38.12233        -2.49359
C         37.61132        40.25020        -2.18035
C         36.42208        39.58077        -2.23402
C         37.66544        41.74860        -1.94646
C         36.35429        42.50411        -2.38892
C         37.70055        44.60400        -2.29204
C         36.47278        43.90136        -1.85334
C         37.73145        46.09281        -2.14716
C         36.48007        46.75139        -1.59941
C         37.78612        48.92872        -1.75783
C         36.80363        48.11256        -0.95783
C         37.69766        50.28198        -1.91238
C         36.30838        50.90265        -1.96815
C         37.55928        53.20817        -1.77462
C         36.28926        52.39846        -1.58225
C         37.65511        54.53819        -1.13403
C         36.60458        54.99021        -0.37771
C         40.46176        15.88703        -0.71103
C         39.32648        16.51989        -1.04847
C         40.24130        18.75016        -0.22050
C         39.06742        17.93642        -0.65959
C         40.17385        20.27707        -0.14923
C         39.01290        20.86324        -0.92490
C         40.24343        23.01195        -1.07373
C         39.01920        22.24347        -1.21840
C         40.23090        24.43495        -1.34793
C         39.05267        25.08343        -1.70786
C         40.27250        27.30412        -1.79151
C         39.02071        26.53018        -2.14326
C         40.23328        28.68684        -1.87165
C         38.96925        29.40449        -1.93313
C         40.12131        31.56433        -1.52823
C         38.93992        30.80166        -1.95928
C         40.00953        33.01776        -1.19231
C         38.77571        33.74877        -1.59757
C         40.13538        35.89169        -1.91914
C         38.79243        35.26873        -1.43227
C         40.12294        37.41032        -1.74417
C         38.87742        38.10780        -2.03864
C         40.05576        40.28487        -1.75519
C         38.84721        39.49659        -2.08738
C         40.19054        41.65906        -2.32996
C         38.89347        42.39966        -2.64392
C         40.18603        44.56003        -2.14857
C         38.98398        43.87558        -2.30389
C         40.20185        46.01155        -2.02081
C         39.02735        46.76580        -1.99257
C         40.22105        48.90259        -2.00793
C         39.03715        48.20951        -1.91842
C         40.24307        50.35858        -2.23919
C         38.89317        51.06589        -2.34393
C         40.13915        53.25554        -1.74740
C         38.87026        52.60907        -2.33514
C         40.10428        54.63101        -1.55107
C         38.79886        55.41081        -1.64384
C         39.94580        57.40314        -0.61153
C         38.82628        56.75380        -0.95250
C         42.93892        16.00304        -0.20079
C         41.57487        16.60862         0.02322
C         42.77523        18.87109        -0.04094
C         41.57604        18.07382        -0.48157
C         42.70899        20.30485        -0.15952
C         41.49196        20.96291        -0.42930
C         42.69641        23.09987        -0.62645
C         41.46344        22.35685        -0.72410
C         42.68478        24.52300        -0.88941
C         41.49071        25.17805        -1.25341
C         42.72122        27.30051        -1.41788
C         41.50309        26.59219        -1.52456
C         42.78240        28.74227        -1.71842
C         41.48137        29.46009        -1.96784
C         42.67061        31.70768        -1.38759
C         41.44845        30.95138        -1.79407
C         42.55859        33.09785        -0.88166
C         41.23289        33.81859        -0.74769
C         42.44026        35.92537        -0.86417
C         41.33161        35.24552        -1.24243
C         42.44850        37.40263        -0.84779
C         41.24563        38.09949        -1.35049
C         42.58989        40.29646        -1.29157
C         41.27968        39.57975        -1.27031
C         42.65673        41.67300        -1.60049
C         41.47718        42.39197        -2.15261
C         42.65791        44.55656        -1.85518
C         41.46928        43.87635        -2.08932
C         42.64930        45.98978        -1.72350
C         41.45885        46.68686        -1.86240
C         42.71688        48.94588        -1.71323
C         41.47163        48.15520        -2.01408
C         42.61116        50.40278        -1.47683
C         41.46519        51.10916        -1.82106
C         42.61140        53.24190        -1.29355
C         41.38791        52.53927        -1.62881
C         42.61092        54.66811        -1.16664
C         41.35475        55.38747        -1.39242
C         42.46901        57.40274        -0.27407
C         41.28130        56.85966        -0.93141
C         44.04205        16.76138        -0.05262
C         45.18359        18.97003         0.41176
C         43.97741        18.21014         0.14885
C         45.15600        20.39148         0.27413
C         43.93143        21.05450        -0.05045
C         45.09684        23.27300         0.15758
C         43.88889        22.46114        -0.24266
C         45.16029        24.60694        -0.52079
C         43.93668        25.24088        -0.83807
C         45.16063        27.36992        -1.03865
C         43.93222        26.63821        -1.10889
C         45.12280        28.81457        -0.99522
C         43.94673        29.51399        -1.23132
C         44.90872        31.60945        -0.37359
C         43.88249        30.94348        -1.01973
C         44.93634        33.05701        -0.29769
C         43.69558        33.77516        -0.55772
C         44.93209        35.93822        -0.48785
C         43.61379        35.23928        -0.17116
C         45.01140        37.42192        -0.51025
C         43.72773        38.16813        -0.61742
C         45.01236        40.26980        -0.98582
C         43.77987        39.59939        -1.00399
C         45.04705        41.66178        -1.19158
C         43.87774        42.36598        -1.52313
C         45.21888        44.52076        -1.51385
C         43.97568        43.80134        -2.01411
C         45.18088        45.97526        -1.26952
C         43.87858        46.69556        -1.25670
C         45.14207        48.95119        -1.63382
C         43.89131        48.22512        -1.07244
C         45.13724        50.37822        -1.07376
C         43.79496        51.07261        -0.81401
C         45.03372        53.24197        -0.78849
C         43.82766        52.55213        -1.08142
C         45.01221        54.66286        -0.63401
C         43.76386        55.36975        -0.77260
C         43.65189        56.73689        -0.31058
C         47.56552        19.06873         0.94486
C         46.38326        18.33777         0.77606
C         47.60645        20.44045         0.71207
C         46.39123        21.13177         0.39468
C         47.65046        23.22449        -0.00040
C         46.40176        22.52630         0.17040
C         47.65768        24.61394        -0.43669
C         46.40402        25.28670        -0.64485
C         47.62806        27.47558        -0.94893
C         46.37701        26.69250        -0.89755
C         47.53595        28.89936        -0.58317
C         46.31808        29.52228        -0.59449
C         47.27447        31.60105         0.58696
C         46.12015        30.86188         0.00297
C         47.08799        33.08586         0.99154
C         46.08480        33.73840         0.07173
C         47.45478        35.89921         0.03432
C         46.20011        35.16396        -0.26167
C         47.53877        37.28414        -0.57914
C         46.21269        38.04943        -0.56725
C         47.52607        40.20922        -0.53262
C         46.30381        39.48696        -1.02081
C         47.51240        41.67002        -0.44098
C         46.27000        42.41359        -0.82973
C         47.57588        44.56914        -0.72876
C         46.35204        43.86374        -1.11225
C         47.61177        46.02663        -0.86340
C         46.45540        46.71683        -1.18624
C         47.73710        48.94292        -1.27046
C         46.46607        48.17920        -1.46864
C         47.63513        50.43044        -1.01906
C         46.29178        51.07647        -0.87601
C         47.40927        53.20190        -0.15334
C         46.25912        52.51425        -0.57597
C         47.36306        54.60671        -0.01046
C         46.21088        55.32400        -0.27684
C         50.14810        20.47685         0.73673
C         48.87173        21.24779         0.96251
C         50.08481        23.12852        -0.44351
C         48.85529        22.55204         0.21351
C         50.10802        24.63624        -0.28543
C         48.91471        25.31518        -0.49965
C         50.12923        27.57329        -0.31908
C         48.95256        26.78109        -0.77384
C         50.04584        28.93721        -0.03340
C         48.77099        29.66299        -0.28868
C         49.76870        31.73905         0.84594
C         48.62134        31.06842         0.22069
C         49.71032        33.12121         1.03631
C         48.41937        33.88606         1.24315
C         49.74191        36.05245         1.03675
C         48.49743        35.29105         0.65617
C         49.83027        37.50176         0.63256
C         48.68032        38.11933        -0.04971
C         50.02316        40.22780        -0.44642
C         48.70216        39.50567        -0.24755
C         49.96520        41.73048        -0.24902
C         48.78107        42.42277        -0.36643
C         49.91832        44.58909         0.20670
C         48.72495        43.86674        -0.37453
C         49.96738        46.05333        -0.14438
C         48.87362        46.72152        -0.63143
C         49.85725        48.85698         0.18626
C         49.05376        48.20966        -0.95080
C         50.00200        50.34276         0.02012
C         48.80239        51.11888        -0.39117
C         49.95540        53.17578         0.25362
C         48.62910        52.43928         0.32875
C         51.28492        21.02181         0.29518
C         52.35867        23.26187         0.80657
C         51.45230        22.45895        -0.12117
C         52.49423        24.64882         0.57493
C         51.40686        25.33667        -0.18702
C         52.60971        27.59865         0.28043
C         51.40850        26.85576        -0.22490
C         52.46808        29.04205         0.69836
C         51.12729        29.66541         0.56778
C         51.99893        31.63047         1.79537
C         50.97294        31.00009         1.01355
C         51.86588        33.02364         2.07397
C         50.88565        33.80937         1.49106
C         52.35722        36.01975         1.24380
C         51.03725        35.26902         1.19700
C         52.31687        37.53575         1.19354
C         51.13119        38.22960         0.62623
C         52.46877        40.26053         0.18351
C         51.20520        39.54558         0.22185
C         52.53384        41.69628        -0.23526
C         51.23577        42.47595        -0.35795
C         52.44290        44.59289         0.19603
C         51.24423        43.90624        -0.05552
C         52.41815        46.02812         0.38952
C         51.20728        46.75738         0.18758
C         52.37352        48.86615         0.66537
C         51.18632        48.14756         0.33416
C         52.35809        50.30017         0.71909
C         51.14270        51.02289         0.36208
C         51.11416        52.49005         0.29213
C         54.31081        23.34281         2.24801
C         53.26570        22.62638         1.66400
C         54.52706        24.69443         1.94346
C         53.58723        25.36273         1.12632
C         54.86711        27.58407         1.48268
C         53.77358        26.80903         0.80593
C         54.76620        29.03892         1.77214
C         53.49654        29.65679         1.59330
C         55.07291        31.97302         2.55189
C         53.14571        30.89584         2.16792
C         55.03105        33.35318         2.13879
C         53.86301        34.10147         2.14112
C         54.88459        36.04179         1.14705
C         53.71534        35.40111         1.54547
C         54.94291        37.51631         1.11484
C         53.64104        38.27109         1.08413
C         54.92467        40.29819         0.21490
C         53.63881        39.62671         0.52052
C         54.91959        41.76818         0.33586
C         53.74225        42.46550         0.15674
C         54.87314        44.59335         0.75377
C         53.69199        43.89094         0.32806
C         54.81215        45.99487         0.97845
C         53.60762        46.71789         0.75889
C         54.78745        48.86861         1.21916
C         53.58291        48.15129         0.90553
C         54.72324        50.27993         1.30094
C         53.54289        50.97298         1.06242
C         56.99252        24.64387         2.60224
C         55.68926        25.40668         2.62917
C         57.12000        27.49173         2.37932
C         55.89686        26.83977         2.22079
C         57.20306        28.92721         2.20596
C         55.99688        29.69544         2.14341
C         57.47228        31.82539         2.20147
C         56.12493        31.13428         2.23674
C         57.45164        33.14090         1.46225
C         56.16322        33.83264         1.33339
C         57.40812        35.90872         0.32139
C         56.10157        35.26178         0.82518
C         57.48186        37.39634         0.56878
C         56.24129        38.17395         0.78141
C         57.53937        40.34535         0.21926
C         56.22104        39.56772         0.23716
C         57.41267        41.67240         0.96855
C         56.10734        42.42706         0.88579
C         57.32273        44.56554         1.28640
C         56.09679        43.88468         0.99999
C         57.29004        45.97498         1.46726
C         55.96786        46.67376         1.66872
C         57.25335        48.82311         1.54883
C         56.01729        48.16319         1.43592
C         58.19141        25.27580         2.65780
C         59.56046        27.35646         2.53910
C         58.31233        26.71494         2.59052
C         59.65545        28.72128         2.28016
C         58.50565        29.54239         2.12341
C         59.80553        31.58824         1.40725
C         58.62616        30.94163         1.84112
C         59.84401        32.94575         1.11644
C         58.64863        33.75651         1.08909
C         59.86784        35.90201         0.73583
C         58.67207        35.16827         0.74674
C         59.90217        37.29190         0.61950
C         58.69901        38.07235         0.61061
C         59.83873        40.26105         1.08487
C         58.73002        39.53533         0.71320
C         59.83777        41.69147         1.17109
C         58.66982        42.44140         1.13031
C         59.76944        44.63657         1.51156
C         58.58905        43.87125         1.32094
C         59.73097        46.00961         1.63703
C         58.48981        46.70522         1.61943
C         58.44852        48.13135         1.69623
O         48.58590        51.20035        -1.83497
O         41.12115        41.76833        -3.46391
O         33.63659        26.81004         0.87437
O         48.60187        34.01357         2.64728
O         32.42341        29.56138         0.50452
O         50.16125        40.13995        -1.84653
O         34.52931        41.05537        -3.13484
O         39.60546        50.62950        -3.53659
O         36.48552        53.21515        -2.78097
O         39.82769        31.98487        -0.12761
O         40.33813        40.20902        -0.30592
O         56.56457        41.68926         2.14117
O         42.81694        37.91481         0.49671
O         46.47581        30.74916         1.45221
O         42.23258        31.64507        -2.80915
O         51.86435        35.45339        -0.02235
O         54.98461        27.12641         0.04648
O         25.54735        35.59179         3.11334
O         48.86607        30.82813        -1.20745
O         25.74392        33.50881         0.16289
O         28.04438        46.94713         4.55974
O         52.80024        33.64383         2.91547
O         30.63578        33.48606        -2.51092
O         25.55256        39.98462         3.14335
O         55.75883        34.13167        -0.06261
O         29.69843        43.92467         3.51258
O         36.46232        34.34759        -3.62959
O         52.03029        42.06081        -1.53978
O         42.33197        29.05468        -3.08553
O         33.05346        31.10828        -2.92697
O         34.33819        44.73095         1.81557
O         29.82308        25.75222         1.82327
O         44.33394        46.09488         0.02434
O         46.55250        42.13961         0.59789
O         36.97003        31.00946        -3.33359
O         55.81433        38.06104         2.19349
O         32.93653        41.67337         2.09005
O         39.37547        18.14928         0.79306
O         52.90702        38.17379         2.35809
O         31.31991        25.76773        -1.53892
O         30.37286        48.65690        -0.14893
O         34.68799        20.53302        -3.08544
O         35.46755        37.90626        -3.60248
O         34.12116        35.50060        -3.39259
O         31.52849        36.14913        -2.19070
O         41.46438        56.51679        -2.33124
O         33.98433        50.23024        -2.06383
O         48.47862        27.16013        -2.11381
O         45.65849        35.39852        -1.64247
O         51.77820        26.05080        -1.41140
O         53.02039        28.65753        -0.62079
O         31.38388        32.36941         0.77537
O         42.41581        48.56735        -3.07857
O         37.51365        45.50948        -3.47357
O         53.94327        31.42577         3.18704
O         55.52028        39.70581        -1.03969
O         49.49281        37.06501         2.03966
O         47.33658        48.54358        -2.62389
O         32.69252        46.12698         3.04390
O         43.55666        51.04702         0.63985
H         43.58805        50.09695         0.91715
O         41.01275        34.02800         0.70359
H         40.70464        33.16000         1.06271
O         48.38458        52.11223         1.73066
H         48.20889        52.94863         2.21028
O         33.60535        28.62331        -2.85733
H         33.17799        29.32146        -3.41235
O         33.93018        36.74617         0.50148
H         34.20603        37.52246         1.03583
O         33.67920        25.36577        -2.41107
H         33.48643        24.50901        -2.84720
O         30.54978        41.50944         3.24623
H         31.55178        41.57444         3.14735
O         57.85122        40.69542        -1.15039
H         57.08029        40.42239        -1.70527
O         30.47539        30.83984        -2.39302
H         30.45514        31.80570        -2.71181
O         29.78093        39.05494         2.55111
H         30.08406        39.86336         3.04358
O         46.61471        39.42747        -2.46285
H         47.32467        38.73973        -2.58178
O         35.35178        22.42539         0.25172
H         34.73251        22.99644         0.77653
O         29.68506        28.39675        -1.81007
H         29.73760        29.23266        -2.34007
O         38.70236        42.28648        -4.06347
H         39.58015        42.42729        -4.48516
O         27.26898        43.27177         3.70781
H         28.13800        43.13185         4.15574
O         52.22646        22.41613        -1.35952
H         52.59440        23.31071        -1.52847
O         26.54962        45.20206         0.69630
H         25.73881        45.69474         0.45198
O         47.83733        37.06647        -2.00482
H         47.15878        36.42094        -2.32704
O         49.83136        22.90879        -1.86715
H         50.69248        22.62450        -2.26397
O         29.68870        30.92668         2.04327
H         30.47960        31.51206         2.14181
O         44.91586        49.08238        -3.04822
H         45.79331        49.23308        -3.47150
O         49.07068        48.65196         1.39899
H         49.50014        49.14339         2.13095
O         27.59375        43.01591         0.07653
H         27.75639        42.23878        -0.51498
O         38.90193        53.03243        -3.72559
H         38.09807        52.65782        -4.15279
O         36.93160        29.85687         0.04321
H         36.80407        29.04473         0.60802
O         49.87910        48.30378        -2.12546
H         49.28627        48.21381        -2.90537
O         35.71059        46.80673         1.65417
H         35.70608        45.94175         2.13236
O         43.43190        35.33463         1.25304
H         42.54772        34.94721         1.45883
O         39.90130        20.61896         1.24803
H         39.28347        19.92823         1.58463
O         37.55960        24.28822        -3.40171
H         37.87198        25.14979        -3.78166
O         32.98712        42.95621        -2.12564
H         32.99620        42.31542        -2.87546
O         48.85666        21.59320         2.39647
H         48.01617        22.06707         2.57451
O         30.57083        46.57287         4.33072
H         31.51887        46.36491         4.49285
O         28.29997        40.56011        -0.49026
H         28.52098        39.74435        -1.00914
O         41.66968        18.03297        -1.93947
H         42.54052        17.64485        -2.17074
O         55.28540        25.45556         4.05373
H         56.03741        25.83232         4.55890
O         29.32692        38.21514        -0.97051
H         29.62719        37.41272        -1.45595
O         37.77785        41.96383        -0.52315
H         38.47806        41.37809        -0.15733
O         33.37171        24.05040         1.02606
H         32.60573        23.68623         1.51786
O         57.38407        35.78163        -1.14088
H         56.94269        34.92052        -1.33699
O         46.37429        33.10268         2.24125
H         47.03396        33.45524         2.90889
O         36.31201        42.65621        -3.80925
H         35.83925        41.87742        -4.18438
O         44.86092        23.60156         1.59688
H         44.52987        22.78494         2.02970
O         37.58883        47.92856         0.24506
H         37.02301        47.55655         0.97150
O         55.67793        46.52951         3.12559
H         55.70468        45.56970         3.33078
O         31.19630        36.99418         1.94767
H         32.09215        36.59385         1.96293
O         57.73574        32.20113         3.62495
H         57.82504        31.36566         4.13235
O         49.73876        44.51932         1.66924
H         48.84938        44.87802         1.87714
O         43.81546        48.46422         0.34762
H         44.11158        47.62770         0.79457
O         38.51713        55.66973        -3.04030
H         38.63408        54.81312        -3.53081
O         36.02732        50.83959        -3.38513
H         35.04833        50.78121        -3.48673
O         40.20905        35.59865        -3.33293
H         41.04329        35.96145        -3.69562
O         38.66472        35.54589        -0.01662
H         39.41950        35.10670         0.45118
O         29.87695        49.11822         4.07777
H         30.11814        48.30377         4.59473
O         41.35184        16.53895         1.44569
H         40.46965        16.94922         1.61812
O         44.17283        43.70151        -3.46257
H         43.41104        43.21337        -3.84356
O         35.56949        46.99996        -2.69422
H         35.83009        46.38604        -3.42433
O         39.00050        26.53034        -3.62457
H         39.90885        26.33099        -3.93834
O         36.05111        27.46810         0.76847
H         35.27591        27.43678         1.38394
H         22.96964        26.77016         3.66455
H         22.95904        29.23301         3.72688
H         23.15287        31.15982         3.97678
H         23.03532        33.61040         3.80051
H         22.37813        35.59027         2.03247
H         22.51508        38.02037         1.92465
H         22.59247        40.04888         1.59408
H         22.79550        42.45676         1.69094
H         22.92157        44.23078         2.49130
H         23.11040        46.53297         3.30816
H         25.86120        23.40987         1.92733
H         24.00017        24.66200         2.96403
H         26.53510        49.72469         4.01118
H         24.41550        48.48297         3.96947
H         26.89871        22.72563         0.03600
H         27.69926        50.37968         2.49544
H         28.74040        21.54795        -1.06230
H         29.05064        51.30987         0.70378
H         32.26287        19.95040        -3.46324
H         30.26696        20.99555        -2.39346
H         32.83825        53.85676         0.36536
H         30.86265        52.50321         0.89099
H         34.87990        17.98160        -2.69327
H         34.65647        54.65846         0.49439
H         36.75904        16.82221        -1.52988
H         36.63393        55.99041         0.07592
H         40.59818        14.82593        -0.97236
H         38.54442        15.97595        -1.59817
H         39.89494        58.38170        -0.10933
H         37.85778        57.24367        -0.77867
H         43.02320        14.91770        -0.36233
H         42.38553        58.36488         0.25230
H         45.03376        16.29486        -0.14164
H         44.52827        57.20651         0.15552
H         48.46981        18.52784         1.25382
H         46.40683        17.25344         0.94560
H         48.25814        55.15481         0.31396
H         46.23816        56.41688        -0.18031
H         50.15482        19.41025         1.00525
H         49.98171        54.27446         0.22044
H         52.17000        20.38043         0.16119
H         52.06611        53.03957         0.27609
H         54.99371        22.82506         2.93540
H         53.15923        21.55299         1.87262
H         55.61783        50.85555         1.57286
H         53.55259        52.06828         1.13989
H         56.95685        23.54504         2.63862
H         57.29545        49.91977         1.48886
H         59.11907        24.68466         2.70097
H         60.47751        26.76141         2.65883
H         60.65213        29.17985         2.21925
H         60.72198        30.99820         1.25716
H         60.79612        33.38199         0.78529
H         60.82308        35.37762         0.88558
H         60.87590        37.80024         0.62053
H         60.77388        39.74363         1.34602
H         60.80392        42.18151         1.35726
H         60.74300        44.12914         1.54232
H         60.66266        46.57976         1.76094
H         59.39308        48.68533         1.79188
