         210
 CSIRO Nanostructure Databank - Neutral Graphene Oxide Data Set
C         30.62221        31.56169         0.70866
C         30.68275        32.78230         0.99553
C         30.64187        35.87666         1.46889
C         30.61268        37.12430         1.56426
C         30.56212        40.24084         1.69691
C         30.47916        41.49910         1.72304
C         32.89577        29.06511        -0.82781
C         31.85102        29.50779        -0.29458
C         32.93923        31.61930         0.07321
C         31.71568        30.83411         0.18452
C         32.95948        33.00780         0.46727
C         31.77258        33.67571         0.92152
C         32.95783        35.86099         1.03021
C         31.76481        35.07247         1.16025
C         32.94688        37.29372         1.20021
C         31.72042        37.99851         1.45030
C         32.91413        40.16295         1.49337
C         31.70106        39.41025         1.55287
C         32.88556        41.63854         1.70224
C         31.55516        42.38978         1.68464
C         32.82240        44.35385         1.28428
C         31.73563        43.77363         1.54796
C         35.60629        27.95366        -2.29167
C         35.24622        29.26018        -1.81227
C         34.13087        29.70930        -1.06617
C         35.34799        31.80509        -0.51157
C         34.12865        31.04665        -0.51045
C         35.37434        33.14893        -0.02790
C         34.16683        33.78395         0.38712
C         35.38699        35.93330         0.59928
C         34.17119        35.18464         0.68448
C         35.38422        37.35738         0.81910
C         34.15799        38.05217         1.08379
C         35.36169        40.23469         1.02658
C         34.13993        39.48854         1.22892
C         35.38257        41.66166         0.98404
C         34.18074        42.41708         1.39530
C         35.23012        44.50105         0.50073
C         34.12061        43.86614         1.02529
C         35.38294        45.86743         0.12162
C         38.05455        27.67670        -2.08581
C         36.68864        27.35240        -2.39047
C         38.24884        29.06971        -2.10786
C         36.34785        30.13746        -1.91584
C         37.85062        31.84871        -0.86523
C         36.53556        31.26541        -1.09632
C         37.83578        33.18586        -0.35372
C         36.60678        33.86545        -0.04669
C         37.83525        35.98355         0.29095
C         36.60392        35.25708         0.28795
C         37.83615        37.39382         0.52359
C         36.60834        38.08422         0.75033
C         37.79304        40.25758         0.69464
C         36.59132        39.53139         0.82794
C         37.79747        41.66919         0.53761
C         36.54836        42.37366         0.63145
C         37.65978        44.47350        -0.08006
C         36.51825        43.80651         0.35275
C         37.61921        45.87221        -0.74086
C         36.37409        46.55344        -0.18030
C         40.22485        24.78300        -1.22736
C         39.21271        25.48417        -1.47941
C         40.36602        27.52677        -1.20847
C         39.11898        26.88663        -1.58397
C         40.40061        28.96253        -1.04614
C         39.25627        29.74148        -1.37147
C         40.30409        31.76826        -0.49636
C         39.10712        31.13643        -0.96958
C         40.29437        33.16646        -0.20483
C         39.06845        33.88318        -0.16108
C         40.30264        35.99538         0.16492
C         39.06084        35.28583         0.11480
C         40.29028        37.42735         0.35663
C         39.08442        38.09795         0.53185
C         40.30772        40.30163         0.51821
C         39.08773        39.54574         0.95789
C         40.27094        41.70280         0.31337
C         39.01665        42.37836         0.32914
C         40.19631        44.43860        -0.50630
C         39.01078        43.88604         0.27499
C         40.18529        45.92458        -0.82252
C         38.89748        46.64381        -0.55391
C         40.22220        48.69488        -0.61533
C         39.15540        47.97955        -0.51987
C         42.78091        24.67000        -0.75149
C         41.50695        25.31562        -0.95809
C         42.86548        27.50319        -0.91397
C         41.53627        26.74694        -0.93903
C         42.79070        28.90893        -0.35993
C         41.58582        29.62627        -0.55283
C         42.72725        31.71012         0.08249
C         41.53227        31.03783        -0.33725
C         42.73871        33.13408         0.20765
C         41.52705        33.86045         0.02703
C         42.80399        36.00890        -0.12301
C         41.51044        35.28165         0.08425
C         42.74734        37.45378         0.31059
C         41.56242        38.14468         0.45084
C         42.73381        40.34857         0.48334
C         41.53431        39.60678         0.52852
C         42.75700        41.74861         0.19929
C         41.50944        42.42414         0.07188
C         42.69963        44.49069        -0.62006
C         41.50495        43.79204        -0.31089
C         42.67328        45.90914        -0.92332
C         41.47455        46.65405        -0.89531
C         42.76286        48.67184        -1.13356
C         41.45869        48.12580        -0.91847
C         43.79294        25.34989        -0.46579
C         45.18716        27.38365         0.08882
C         44.05187        26.72734        -0.32138
C         45.21447        28.83048         0.34591
C         43.95578        29.55933         0.14102
C         45.05769        31.65000         0.97209
C         43.90346        30.95602         0.36399
C         45.10813        33.12069         0.92804
C         43.96219        33.83852         0.55767
C         45.19797        35.96920         0.53212
C         43.99359        35.27010         0.44287
C         45.27895        37.35182         0.21541
C         44.03801        38.12940         0.49749
C         45.24534        40.37664         0.47705
C         43.97925        39.63069         0.72254
C         45.28377        41.83365         0.16681
C         43.97780        42.48561        -0.02110
C         45.21042        44.40337        -0.97145
C         43.96017        43.79993        -0.50927
C         45.14547        45.84126        -1.25717
C         43.96621        46.55727        -1.16408
C         43.77741        47.96371        -1.29773
C         47.54748        27.40352         0.49494
C         46.47450        26.80366         0.31540
C         47.69999        28.79825         0.78470
C         46.39480        29.47122         0.75135
C         47.63580        31.63243         1.48425
C         46.34505        30.88040         1.21759
C         47.66282        33.10771         1.36763
C         46.35771        33.80781         1.31009
C         47.72952        35.93219         0.81106
C         46.41796        35.30855         1.02301
C         47.78653        37.23723         0.26499
C         46.56756        37.89097        -0.10827
C         47.86229        39.93093        -0.72057
C         46.70280        39.13782        -0.74836
C         47.69186        41.37652        -1.21583
C         46.53849        42.32234        -0.57682
C         47.60258        44.21554        -2.00588
C         46.37688        43.66184        -1.19635
C         47.51292        45.71386        -1.82562
C         46.43679        46.30325        -1.65747
C         50.23315        28.99793         0.86915
C         48.89766        29.45626         0.99364
C         50.21934        31.68731         1.28097
C         48.95517        30.90196         1.40131
C         50.15081        33.09811         1.46960
C         48.86161        33.80979         1.43559
C         50.11560        36.01301         1.24557
C         48.90384        35.25863         1.19922
C         50.18411        37.33047         0.74532
C         49.01811        37.96099         0.18657
C         50.34549        40.08124        -0.39509
C         49.04286        39.32397        -0.26989
C         50.15951        41.60262        -0.33675
C         49.01982        42.13790        -1.14872
C         49.95561        44.33762        -0.76205
C         48.92494        43.62043        -1.51847
C         51.33641        29.58244         0.91764
C         52.59738        31.84736         1.20119
C         51.47973        31.00053         1.11946
C         52.47299        33.08679         1.44142
C         51.34348        33.88117         1.60134
C         52.49175        36.16500         1.81174
C         51.24920        35.32247         2.02340
C         52.39587        37.37254         1.55019
C         51.39677        38.16336         0.89399
C         52.32885        40.52994         0.84182
C         51.42208        39.48558         0.53625
C         52.29612        41.77567         0.74715
C         51.17707        42.44886         0.12574
C         50.94383        43.82733        -0.20586
O         48.29695        31.13173         2.69586
O         37.35378        29.85355        -2.85338
O         46.22018        34.79533         2.38261
O         44.07192        38.75886         1.88467
O         49.47824        42.66296        -2.45494
O         39.97769        44.89526        -1.86368
O         33.77156        42.11094         2.76954
O         46.37989        42.48348         0.87117
O         45.54092        39.81099        -1.02416
O         45.39603        31.08931         2.30880
O         50.88400        35.35850         3.40138
H         51.53172        34.83387         3.91575
O         46.20194        40.03879         1.39977
H         45.83140        39.31088         1.96123
O         47.41212        43.89270        -3.36436
H         48.12546        43.26745        -3.63536
O         37.40843        45.66730        -2.13387
H         37.62102        46.49207        -2.61723
O         43.02549        36.04432        -1.58650
H         42.21315        36.40603        -2.00087
O         43.22308        27.67982        -2.32592
H         43.27300        26.78891        -2.73490
O         50.83835        39.80557        -1.74372
H         50.47533        40.48316        -2.35502
O         39.18971        39.50834         2.43733
H         38.41801        39.00345         2.77278
O         39.27744        44.35689         1.64828
H         38.65329        43.90303         2.25427
O         47.32272        41.27990        -2.60074
H         46.49658        40.74802        -2.64642
