         280
 CSIRO Nanostructure Databank - Neutral Graphene Oxide Data Set
C        -11.01838         0.89768        -0.96509
C         -9.72764         1.63503        -0.88176
C         -8.49471         0.87516        -0.54181
C         -7.24948         1.72405        -0.22501
C         -6.05974         0.86018         0.18498
C         -4.76293         1.64063         0.45064
C         -3.63159         0.84356         1.14770
C         -2.30466         1.62556         1.45447
C         -1.00120         0.82156         1.22872
C          0.29999         1.54879         0.93223
C          1.53567         0.76051         0.52012
C          2.66910         1.43086        -0.25104
C          3.71847         0.59467        -0.96581
C          4.99561         1.25426        -1.62558
C          6.28289         0.53465        -1.17172
C          7.54043         1.34742        -1.18999
C          8.78843         0.64924        -0.68146
C          9.57690         1.56516         0.32653
C         10.66229         0.83196         1.08634
C         -9.67257         3.10787        -0.66402
C         -8.71239         3.70244         0.08373
C         -7.62069         2.88204         0.79313
C         -6.28505         3.69223         1.14524
C         -4.93031         3.01408         1.12180
C         -3.58453         3.82269         1.37626
C         -2.29910         3.05721         0.83408
C         -0.98179         3.83200         1.01900
C          0.29060         3.06235         0.76024
C          1.32314         3.64207        -0.18798
C          2.62331         2.90967        -0.45654
C          3.63952         3.54144        -1.38511
C          4.93985         2.82052        -1.67232
C          6.28609         3.64447        -1.95160
C          7.54282         2.82191        -1.46489
C          8.78025         3.63641        -0.95662
C          9.87664         2.73331        -0.51079
C         -8.84211         5.15428         0.49119
C         -7.52713         5.91145         0.58840
C         -6.32693         5.24633         1.25750
C         -4.99860         5.93516         0.77484
C         -3.66300         5.26760         0.86530
C         -2.45950         5.83202         0.15427
C         -1.10660         5.26768         0.51953
C          0.06725         5.92249        -0.11973
C          1.20332         5.07327        -0.60788
C          2.34737         5.80433        -1.25620
C          3.62869         5.04588        -1.49060
C          4.93709         5.76428        -1.41959
C          6.29051         5.08471        -1.36054
C          7.18720         5.43110        -0.19284
C          8.33765         4.73601         0.03447
C         -7.51526         7.23970         0.34739
C         -6.28088         8.08653         0.58008
C         -5.09955         7.26230         0.06994
C         -3.85932         7.96117        -0.37111
C         -2.55364         7.20487        -0.45917
C         -1.30164         8.01799        -0.74348
C          0.00417         7.30857        -0.70603
C          1.31647         8.04005        -0.45099
C          2.39024         7.30855        -1.28532
C          3.74075         7.91528        -1.34960
C          4.89964         7.20735        -1.08254
C          6.08691         7.79317        -0.56152
C          7.27213         6.88694        -0.73816
C         -6.29617         9.43761        -0.09690
C         -5.15275        10.07686        -0.38228
C         -3.80963         9.46063        -0.04148
C         -2.62696        10.20564        -0.69576
C         -1.28820         9.49506        -0.53999
C         -0.11911        10.16662        -0.38980
C          1.26119         9.58512        -0.68826
C          2.42963        10.15629         0.14732
C          3.71439         9.80744        -0.20836
C          4.96281         9.80138         0.51358
C          6.06140         8.97992         0.22094
C        -11.08054        -0.44569        -0.85929
C         -9.96005        -1.24167        -0.27443
C         -8.67310        -0.52198         0.00043
C         -7.45792        -1.34713         0.31861
C         -6.13673        -0.62684         0.32056
C         -4.96143        -1.39261         0.85236
C         -3.66683        -0.65632         1.11086
C         -2.38229        -1.36500         0.67633
C         -1.09330        -0.69737         1.16641
C          0.18545        -1.45938         0.99650
C          1.47937        -0.73222         0.68667
C          2.51913        -1.53740        -0.02309
C          3.75742        -0.84825        -0.55289
C          5.04474        -1.51378        -0.07744
C          6.32324        -0.84300        -0.56414
C          7.57674        -1.35761         0.15201
C          8.88155        -0.83881        -0.44375
C         10.17908        -1.43812         0.11399
C         10.79875        -0.50294         1.14168
C        -10.00456        -2.78281        -0.35045
C         -8.65078        -3.49945        -0.48576
C         -7.43789        -2.82515         0.04584
C         -6.06003        -3.43869        -0.26267
C         -4.98457        -2.87187         0.66319
C         -3.69093        -3.62496         0.76429
C         -2.40134        -2.88314         0.89378
C         -1.14972        -3.63165         0.53530
C          0.14170        -2.90566         0.57040
C          1.41149        -3.68439         0.91545
C          2.54973        -3.01203         0.16095
C          3.86204        -3.72517         0.14309
C          5.08177        -3.00945        -0.38010
C          6.39867        -3.70037        -0.26480
C          7.49252        -2.93288         0.49080
C          8.85287        -3.60800         0.43017
C         10.00155        -2.90161         0.48566
C         -8.56884        -4.78072        -0.91299
C         -7.25321        -5.51836        -1.11698
C         -6.09145        -4.95393        -0.31917
C         -5.00033        -5.70016         0.01061
C         -3.68572        -5.03070         0.24636
C         -2.40930        -5.79956         0.31196
C         -1.14407        -5.13345         0.83723
C          0.09080        -5.86011         0.31090
C          1.38263        -5.15034         0.47817
C          2.61836        -5.95176         0.85576
C          3.89177        -5.16762         0.51260
C          5.11987        -5.94083         0.18225
C          6.40011        -5.20983        -0.10162
C          7.66022        -5.92614         0.23697
C          8.89089        -5.12113         0.66952
C         -7.33214        -7.01572        -1.12345
C         -6.24722        -7.85074        -0.63498
C         -5.02430        -7.18992        -0.01232
C         -3.73138        -7.98499         0.08751
C         -2.41919        -7.29646         0.34013
C         -1.13428        -8.00963         0.12664
C          0.07821        -7.35099         0.22831
C          1.34260        -8.04404         0.12419
C          2.59808        -7.37440         0.32904
C          3.79488        -8.07221         0.31568
C          5.09092        -7.38951         0.54759
C          6.39553        -8.10949         0.34605
C          7.64997        -7.28486         0.28077
C         -6.05976        -9.21740        -1.17664
C         -4.88044        -9.87820        -1.13283
C         -3.66156        -9.33705        -0.53671
C         -2.48036       -10.01136        -0.58351
C         -1.19387        -9.52268         0.06129
C          0.05195       -10.09952        -0.65154
C          1.35589        -9.45262        -0.20549
C          2.52688       -10.16248        -0.19361
C          3.82076        -9.57778         0.31240
C          5.09219       -10.11225        -0.32490
C          6.27618        -9.47411        -0.22534
O         -0.19777         6.09399         1.32092
O         -3.86405         0.05147         2.35769
O         11.18435        -1.47984        -0.93360
H         10.84273        -0.95321        -1.69548
O          5.84492        -3.32837        -1.56961
O         -0.62447         7.55458        -1.97362
O          2.04699        -2.44699        -1.07334
O         -6.04200        -7.74986         0.85863
O          3.32023         2.36989         0.69825
O          7.05624        -3.01562         1.83212
O          7.63532        -0.69245         1.44326
H          7.44104        -1.43331         2.10746
O         -8.13654         2.32135         1.91619
O          7.12398         6.19033        -2.06714
O         -2.19242         3.03039        -0.60007
H         -3.06698         3.02052        -1.05618
O          0.70263         3.98896        -1.46672
O         -3.04318        -3.43158         2.07433
O          1.46579         9.80381        -2.08762
H          1.22693        10.72676        -2.30764
O         -2.83275        -5.21594        -0.95598
O          6.41178         3.79649        -3.34910
H          6.29034         2.91567        -3.76657
O          2.07765         0.08230         1.70945
O         -7.66155        -2.30184         1.38559
O         -0.43279        -1.30707         2.30895
O          3.37108        -0.46503        -1.90186
O          5.62092        -5.82456        -1.18526
O          2.59754        -6.10467         2.29233
H          2.95283        -5.26653         2.67659
O          4.16090        -4.15939         1.53137
O          4.28652         5.49788        -2.69850
O         -0.52360        -3.18176        -0.70003
O         -5.33572        -2.28995         1.93762
O         -4.83812         7.45808        -1.34480
O         -8.83733         1.05192        -1.95661
O          9.17111        -0.25474        -1.74914
O         -5.72125         3.05007         2.32527
O         -2.39845        -1.18182        -0.76454
H         -1.73898        -1.80507        -1.16526
O          6.46591        -0.69765        -1.98173
O         -2.86664        10.34449        -2.10198
H         -2.83437         9.45721        -2.51828
O         -3.18102        -7.90296         1.44947
O          0.81867        -5.32096        -0.84460
O         -4.10969         6.16438         1.92327
O         -5.83246        -0.05050        -0.97775
O          3.85381         9.28310        -1.52347
O          3.90251        -9.95144         1.73443
H          4.61932        -9.39203         2.12608
O         -6.46273         5.56538         2.65439
H         -5.82750         4.98488         3.13812
O          1.91944         6.56788        -2.43292
O          5.81047        -7.91666         1.71039
O         -9.76132         5.84261        -0.35064
H         -9.38532         5.88550        -1.25353
O          3.89281         3.02035        -2.69186
O         -2.63879         6.00337        -1.27961
O         -6.84068         2.41789        -1.40132
H         -7.45427         2.12924        -2.12701
O         -3.47513         4.01793         2.78048
H         -3.38872         3.14585         3.23336
O         -6.87879        -5.18865        -2.53893
H         -7.66079        -5.38341        -3.10027
O          4.97005        -1.38123         1.35366
H          5.61065        -2.04633         1.75966
O         -2.31108         1.82853         2.87742
H         -2.26295         0.95191         3.31728
O         -9.66628        -0.68198         1.05369
O          7.88388         1.89083        -2.51501
O         -0.06635         1.19018         2.27675
O          0.00854         3.69891         2.04766
O         10.07641        -5.68834         0.11400
H         10.09061        -5.50392        -0.84737
O          1.72539         7.83284         0.91979
H          0.95144         7.59710         1.48029
O        -10.85567        -3.17601        -1.42905
H        -10.51003        -2.79387        -2.26148
O          9.29203         4.40409        -2.04961
H          8.58131         5.01032        -2.37861
O         -3.59305         9.54067         1.38625
H         -4.40274         9.18636         1.83878
O         -1.17554       -10.00727         1.42648
H         -1.90213        -9.54658         1.90671
O          4.94767         0.97161        -3.03454
H          5.08299         0.00385        -3.15599
O         -5.67801        -2.96310        -1.57946
H         -6.01825        -3.60809        -2.24905
O          1.60818        -3.58484         2.32786
H          0.85789        -4.02699         2.78362
O         -6.09352         8.31151         2.00222
H         -6.17018         7.43444         2.46201
O         -4.32683         1.91461        -0.89588
H         -4.56862         1.14192        -1.46070
O         -1.06604        -5.26931         2.27163
H         -1.84352        -4.79959         2.66509
O         -0.08771        -9.91264        -2.06833
H          0.04819        -8.96507        -2.27653
O          8.54729         1.90388         1.27288
H          8.21227         1.05582         1.66913
H         11.55746        -0.93138         1.81487
H         11.23696         1.45929         1.78604
H         10.79503         2.73293        -1.11843
H          9.15760         5.24286         0.56936
H          8.26030         7.38704        -0.62723
H          6.98821         9.20477         0.77508
H          5.06564        10.48789         1.36817
H          2.22505        10.59473         1.13545
H         -0.16367        11.26275        -0.26974
H         -2.56428        11.23501        -0.26649
H         -5.16730        11.06691        -0.86221
H         -7.26888         9.89779        -0.32982
H         -8.43352         7.71948        -0.02979
H         -9.28544         5.14773         1.52558
H        -10.50555         3.71960        -1.04918
H        -11.90974         1.46811        -1.26756
H        -12.02901        -0.97215        -1.04388
H        -10.48650        -3.15616         0.58968
H         -9.48402        -5.28661        -1.26082
H         -8.00194        -7.45907        -1.87879
H         -6.92500        -9.68690        -1.66817
H         -4.81035       -10.88342        -1.57480
H         -2.45915       -11.00990        -1.04741
H          0.09272       -11.20040        -0.46877
H          2.51007       -11.23652        -0.43730
H          5.05460       -11.11368        -0.78052
H          7.18112        -9.92954        -0.65640
H          8.59253        -7.81483         0.49533
H          8.96405        -5.26330         1.78315
H         10.94846        -3.45966         0.57749
