         234
 CSIRO Nanostructure Databank - Neutral Graphene Oxide Data Set
C          1.32849         2.29990        -1.36410
C          1.28074         3.59938        -0.84140
C          2.52271         1.58492        -1.47806
C          2.43467         4.23789        -0.34209
C          1.25418         6.34706         0.24466
C          1.24678         7.70920         0.40754
C          2.46375         5.58279         0.12937
C          2.46108         8.46546         0.57679
C          1.35610        10.59995        -0.04255
C          1.39118        11.91250        -0.39870
C          2.50223         9.84394         0.43541
C          2.60081        12.73889        -0.20268
C          1.37956        15.06809        -0.57823
C          1.26614        16.38172        -0.33021
C          2.57114        14.27675        -0.19157
C          2.20720        17.15958         0.56024
C          2.43719        18.58006         0.09344
C          3.74317         2.14519        -1.04187
C          3.68653         3.45985        -0.36215
C          4.97501         1.48532        -1.18934
C          4.98607         4.23478        -0.20476
C          3.71536         6.27073         0.36666
C          3.63005         7.61699         1.07660
C          4.92621         5.68233         0.07699
C          4.96085         8.38669         1.21322
C          3.82456        10.58733         0.42193
C          3.64773        12.09643         0.62461
C          4.98302         9.87545         1.13876
C          4.58423        12.90905         1.19512
C          3.63108        14.99503         0.54424
C          3.51629        16.41955         0.82578
C          4.77925        14.32060         0.95891
C          4.86009        17.15018         0.95465
C          3.62217        19.21988         0.18664
C          4.87377        18.56897         0.54501
C          6.22008         2.14523        -1.01361
C          6.19700         3.61448        -0.81568
C          7.45380         1.53040        -1.23834
C          7.50147         4.36550        -0.72390
C          6.20576         6.42721         0.19645
C          6.29105         7.60413         1.16943
C          7.49534         5.75659        -0.16033
C          7.54610         8.40557         0.77205
C          6.31572        10.53195         0.96570
C          6.42930        11.84985         1.31375
C          7.52471         9.81876         0.65621
C          7.41032        12.76990         0.76471
C          6.09335        14.96411         1.06288
C          6.11859        16.37308         0.90121
C          7.35353        14.24556         0.96772
C          7.34105        17.07895         0.73857
C          6.07531        19.20137         0.38354
C          7.32949        18.50502         0.54162
C          8.70560         2.20889        -1.09456
C          8.74633         3.58617        -0.70120
C          9.92353         1.51868        -1.34096
C          9.96322         4.23010        -0.37064
C          8.75535         6.22388         0.56559
C          8.76258         7.73450         0.58302
C         10.01123         5.58907         0.00915
C          9.97630         8.45380         0.40024
C          8.72490        10.55738         0.50103
C          8.69349        12.03216         0.35486
C          9.94960         9.87834         0.40154
C          9.92778        12.83208         0.41610
C          8.57624        14.93016         0.79070
C          8.58742        16.37697         0.75333
C          9.82881        14.20345         0.58642
C          9.79041        17.12189         0.64586
C          8.52867        19.20040         0.40195
C          9.77231        18.52661         0.46159
C         11.17432         2.13004        -1.16073
C         11.21523         3.46834        -0.52369
C         12.39629         1.47997        -1.40961
C         12.51400         4.23249        -0.50464
C         11.23729         6.32263         0.01189
C         11.22744         7.75290         0.20610
C         12.45449         5.69078        -0.33093
C         12.43953         8.46581         0.10499
C         11.22909        10.65125         0.54750
C         11.20388        12.13781         0.27494
C         12.40808         9.93421        -0.05679
C         12.37556        12.82389         0.07797
C         11.10895        14.94657         0.65221
C         11.09523        16.44376         0.71321
C         12.33040        14.30078         0.06590
C         12.33372        17.18817         0.38564
C         10.99436        19.24995         0.25907
C         12.23314        18.62481         0.20047
C         13.64397         2.15589        -1.28946
C         13.61814         3.67585        -1.38988
C         14.83052         1.45992        -1.15655
C         14.99791         4.37756        -1.18939
C         13.67876         6.40935        -0.36397
C         13.67416         7.81802        -0.12578
C         14.91530         5.73312        -0.51686
C         14.91770         8.53521        -0.04163
C         13.68413        10.68029        -0.31283
C         13.67643        12.20237        -0.42902
C         14.94401         9.96668        -0.01550
C         14.92437        12.87519         0.11617
C         13.60644        15.09583        -0.01497
C         13.54825        16.55010         0.30543
C         14.97197        14.39375        -0.13787
C         14.79372        17.37738         0.36252
C         13.39654        19.30990        -0.26814
C         14.65752        18.72568        -0.30043
C         16.05739         2.10892        -0.77561
C         16.08681         3.51860        -0.60052
C         17.20519         1.34552        -0.48543
C         17.23434         4.15425        -0.07735
C         16.09869         6.37359        -0.08629
C         16.10930         7.79742         0.17506
C         17.27145         5.58049         0.13663
C         17.28573         8.46394         0.66113
C         16.09865        10.66907         0.34417
C         16.04376        12.14400         0.43287
C         17.31844         9.93494         0.65658
C         17.28497        12.87343         0.83010
C         16.03906        15.10948         0.65405
C         16.09335        16.59243         0.60646
C         17.26419        14.37607         0.83389
C         17.39529        17.22469         0.32560
C         15.67478        19.38155        -1.05731
C         17.04200        19.16222        -0.91894
C         18.37610         1.95831         0.00628
C         18.37776         3.36730         0.25423
C         19.55546         1.20345         0.28119
C         19.51622         3.98686         0.84540
C         18.38737         6.17744         0.78352
C         18.35032         7.60241         1.09622
C         19.48498         5.37244         1.17995
C         19.41937         8.05609         1.90421
C         18.54300        10.65451         0.72851
C         18.61131        12.16193         0.73038
C         19.64763        10.06728         1.41752
C         19.83385        12.88410         0.22119
C         18.64102        15.08844         0.40913
C         18.55157        16.50492         0.04836
C         19.75281        14.28037        -0.09963
C         19.68610        17.13214        -0.55621
C         18.01965        19.45001        -1.89388
C         19.35517        19.01161        -1.78126
C         20.68845         1.82365         0.77593
C         20.69137         3.20425         1.07756
C         21.88960         3.85968         1.55156
C         20.55258         5.86648         2.14228
C         20.63301         7.37301         2.14553
C         21.86448         5.14425         1.97530
C         21.81244         8.10561         2.33954
C         21.02640        10.20369         1.21658
C         21.03923        12.23807        -0.16179
C         22.00858         9.40653         1.84459
C         21.97221        12.87303        -1.01151
C         20.74220        14.94642        -0.89110
C         20.71188        16.38989        -1.14309
C         21.81124        14.18339        -1.40611
C         21.69918        17.04870        -1.95611
C         20.33390        18.99684        -2.77978
C         21.50823        18.20997        -2.69422
O          6.74452         4.29799        -1.98214
O          4.05199        16.81255         2.13378
O         11.29935        15.61893         1.93450
O          5.45190        12.37098         2.15480
O         18.01008        12.46574         2.04250
O         18.21820        14.89726         1.78346
O          4.44280         3.44947         0.90102
O         12.85302        10.18558        -1.43976
O         15.38247        17.34453         1.68753
O          7.72332        12.46199        -0.64697
O          6.89566         6.72378        -1.06800
O         19.27647         9.29657         2.53770
O          3.09072        13.50311        -1.35435
O         12.76124        14.87895        -1.21608
O         12.11219         3.47268         0.66318
O          4.82624         9.23364         2.43315
O         21.52008        10.99965         0.19617
O         19.75691        18.52188        -0.51478
O         17.46439        18.59835         0.32165
O         11.27914        10.48825         1.96317
O         13.70859        12.49523        -1.86234
H         13.12296        11.82484        -2.29006
O         13.13502         3.97601        -2.72223
H         13.92142         4.11373        -3.29841
O          3.24390         7.23203         2.42814
H          3.45227         7.99922         3.00926
O          8.65222         5.69607         1.91662
H          9.33375         6.12974         2.47107
O          4.28234        10.49902        -0.97061
H          3.72066        11.08555        -1.52226
O          1.51333        17.27649         1.83567
H          2.21151        17.42677         2.51463
O         20.05885         5.49191         3.48112
H         19.96873         4.51518         3.49556
O         15.50236         4.66541        -2.54698
H         16.35407         5.14190        -2.44647
O         15.39058        14.53990        -1.53021
H         14.68594        14.08677        -2.06138
O          6.48872         7.07267         2.49086
H          6.20331         7.76457         3.12714
H          0.39774         1.84441        -1.73037
H          0.31497         4.12283        -0.83700
H          2.52230         0.58749        -1.94046
H          0.28993         5.83456         0.12145
H          0.27942         8.23003         0.37761
H          0.40558        10.06449        -0.17873
H          0.49172        12.38320        -0.82102
H          0.62367        14.56273        -1.19784
H          0.37763        16.92366        -0.68886
H          1.54415        19.14423        -0.21554
H          4.97864         0.44436        -1.54750
H          3.68665        20.28116        -0.10078
H          7.47538         0.46039        -1.49483
H          6.10194        20.25730         0.07455
H          9.87900         0.48845        -1.72566
H          8.51148        20.28733         0.23513
H         12.39499         0.40105        -1.63173
H         10.93062        20.33231         0.07131
H         14.81517         0.35900        -1.18116
H         13.27846        20.33414        -0.65233
H         17.18397         0.25657        -0.63750
H         15.34155        20.10441        -1.81731
H         19.55783         0.12329         0.07752
H         17.67799        19.85509        -2.85643
H         21.60184         1.23831         0.95630
H         22.83298         3.29300         1.53889
H         22.78600         5.61343         2.34723
H         22.71848         7.57236         2.66265
H         23.05029         9.74167         1.73225
H         22.84686        12.29545        -1.33744
H         22.55457        14.63491        -2.07342
H         22.64298        16.51753        -2.14485
H         20.18227        19.60839        -3.68097
H         22.30968        18.45910        -3.40835
