         252
 CSIRO Nanostructure Databank - Neutral Graphene Oxide Data Set
C         30.41057        31.49104         0.27069
C         30.43003        32.74215         0.19720
C         30.37724        35.86230        -0.05139
C         30.37189        37.14303        -0.09848
C         30.35905        40.25660         0.66677
C         30.44688        41.43814         1.03409
C         32.90586        28.77102         0.39719
C         31.75915        29.29935         0.41232
C         32.82470        31.46939         0.31643
C         31.57772        30.69406         0.33304
C         32.76762        32.89952         0.18443
C         31.53868        33.61518         0.12100
C         32.71970        35.79220        -0.38219
C         31.48232        35.03424        -0.04608
C         32.68790        37.35793        -0.47622
C         31.39900        38.04461        -0.17512
C         32.69980        40.27975        -0.08497
C         31.36754        39.50445        -0.07885
C         32.77229        41.64750         0.52651
C         31.61552        42.26450         1.12811
C         32.97917        44.09261         1.51865
C         31.83651        43.55879         1.62872
C         35.55464        27.21090         0.85989
C         35.48157        28.61781         0.25899
C         34.17626        29.34576         0.40619
C         35.34399        31.51420         0.46837
C         34.10444        30.77584         0.38869
C         35.30183        32.99081         0.54490
C         34.00590        33.72365         0.30782
C         35.17842        35.89035        -0.35859
C         34.02478        35.15648        -0.14085
C         35.19314        37.35515        -0.39037
C         33.96626        38.08144        -0.29042
C         35.19300        40.18512        -0.16090
C         33.97210        39.49160        -0.16395
C         35.14037        41.68675        -0.34361
C         34.01193        42.33491         0.44471
C         35.42941        44.44443         0.82501
C         34.16007        43.66209         0.91436
C         35.28675        45.86370         0.24367
C         37.99398        27.25144         1.25283
C         36.73738        26.74639         0.97368
C         37.91737        28.74209         1.28139
C         36.62759        29.41639         0.90527
C         37.82557        31.57362         0.56378
C         36.60111        30.87670         0.60252
C         37.79752        32.92003        -0.13553
C         36.59708        33.74061         0.40231
C         37.77147        35.88509        -0.74354
C         36.41549        35.15277        -0.84212
C         37.76058        37.42817        -0.76339
C         36.42426        38.07255        -0.38508
C         37.67428        40.25170        -0.23900
C         36.42052        39.48548        -0.25393
C         37.69849        41.62521        -0.37682
C         36.47722        42.39635        -0.22900
C         37.71353        44.54411        -0.41025
C         36.50654        43.75714        -0.04012
C         37.70653        46.01684        -0.19991
C         36.43063        46.43132         0.13117
C         40.42646        24.57190         0.83736
C         39.43728        25.15868         1.29433
C         40.39709        27.30369         0.62806
C         39.31942        26.63259         1.55634
C         40.33863        28.70422         0.52697
C         39.24434        29.49249         1.25360
C         40.26654        31.58980         0.40757
C         39.09198        30.91543         0.70715
C         40.30598        33.04776         0.40546
C         39.00673        33.77715         0.17689
C         40.24129        35.95913         0.11668
C         39.04366        35.19194        -0.31697
C         40.22379        37.32068         0.20373
C         38.90720        38.01924         0.08297
C         40.16036        40.22083         0.42849
C         38.90138        39.52756         0.18667
C         40.13227        41.68586         0.32366
C         39.05951        42.29600        -0.55806
C         40.27976        44.60273        -0.19720
C         39.03545        43.83283        -0.50418
C         40.27280        46.05164        -0.34639
C         38.93506        46.84543        -0.31264
C         40.14944        48.35276        -1.80011
C         39.09930        47.76826        -1.51553
C         42.75510        24.53644        -0.32315
C         41.55139        25.12452         0.14300
C         42.41559        27.29102        -0.92731
C         41.44788        26.55250         0.00313
C         42.52459        28.76716        -0.62012
C         41.44034        29.41585        -0.06851
C         42.79981        31.55842         0.07652
C         41.43799        30.91765        -0.23855
C         42.75475        33.08501        -0.04707
C         41.56316        33.76054         0.19756
C         42.69400        36.01977        -0.11672
C         41.52436        35.22764         0.49509
C         42.64199        37.40528         0.54699
C         41.44109        38.06052         0.59534
C         42.62711        40.27792         1.12347
C         41.29123        39.48415         1.14220
C         42.66443        41.75986         0.83213
C         41.38680        42.49808         0.51423
C         42.72360        44.66156         0.23078
C         41.44668        43.92294         0.07259
C         42.72573        46.16272         0.00469
C         41.44184        46.77558        -0.42557
C         42.76568        48.34640        -1.71749
C         41.43111        48.24648        -1.03334
C         43.67099        25.26928        -0.81425
C         44.84362        27.37280        -1.69042
C         43.81066        26.61131        -1.11099
C         44.66626        28.77159        -1.81505
C         43.68043        29.53629        -1.09367
C         45.14308        31.66421        -0.99750
C         43.87693        30.87993        -0.76903
C         45.18928        33.11959        -0.65130
C         43.95843        33.82538        -0.22324
C         45.20668        35.92530        -0.03043
C         44.00311        35.23961        -0.02284
C         45.22317        37.32516         0.46453
C         43.93731        38.01863         0.89923
C         45.24261        40.24256         0.92963
C         43.95090        39.50897         1.12507
C         45.22910        41.64698         0.41325
C         43.92054        42.38027         0.26876
C         45.33476        44.51830        -0.30280
C         43.96228        43.85064        -0.04779
C         45.29749        46.06594        -0.16960
C         44.07656        46.93751        -0.16083
C         43.80231        47.80111        -1.34760
C         47.32737        27.60571        -1.87350
C         46.22761        27.03553        -1.91950
C         47.76688        28.91965        -1.47491
C         46.65697        29.83886        -1.62514
C         47.60914        31.54680        -0.13394
C         46.47746        30.98606        -0.92032
C         47.61915        33.04122        -0.00140
C         46.49910        33.75587        -0.30246
C         47.75973        35.91621         0.06794
C         46.50696        35.26179        -0.46445
C         47.77066        37.40015         0.11031
C         46.47434        38.12692         0.25918
C         47.72154        40.20647         0.88889
C         46.53222        39.53590         0.69316
C         47.65883        41.69418         1.24633
C         46.52292        42.38302         0.46460
C         47.83271        44.53861         0.49208
C         46.42924        43.88605         0.63877
C         47.71429        45.88712         0.15017
C         46.58533        46.48287        -0.03186
C         50.17791        28.77498        -0.74558
C         48.88799        29.36669        -0.80371
C         50.27555        31.35771         0.31419
C         48.89557        30.72227        -0.10661
C         50.21037        32.93809         0.32443
C         48.90854        33.72872         0.31409
C         50.21233        35.93488         0.13925
C         48.93553        35.21987         0.19446
C         50.21763        37.36718         0.06613
C         49.01095        38.00542         0.75941
C         50.13477        40.23082         1.35981
C         48.99592        39.52465         0.93216
C         50.16863        41.67217         1.35557
C         49.00541        42.38534         1.03689
C         50.34260        44.27786         0.75530
C         48.99555        43.80219         0.75424
C         51.27109        29.40103        -0.80951
C         52.51243        31.65108        -0.67318
C         51.51215        30.74154        -0.46075
C         52.45504        32.91909        -0.48540
C         51.42794        33.74179        -0.09839
C         52.38138        36.03707        -0.62260
C         51.38380        35.16374        -0.15753
C         52.43053        37.27465        -0.85180
C         51.28309        38.07121        -0.54562
C         52.58871        40.24652         1.41106
C         51.37339        39.45867         1.78029
C         52.59905        41.48500         1.42229
C         51.50643        42.45703         1.72314
C         51.46038        43.76600         0.94864
O         32.65713        36.50445        -1.65348
O         47.35150        41.91218         2.59908
O         36.18154        34.59758        -2.00026
O         42.54874        36.25941        -1.46914
O         46.09602        41.78260        -0.77822
O         40.39234        42.36696         1.59963
O         47.13819        37.99537        -1.06651
O         43.66878        42.86055        -1.08912
O         38.34055        44.26478        -1.72676
O         44.74445        39.95657         2.26582
O         38.50549        38.59678         1.33519
O         34.54879        33.54323         1.68620
O         47.98332        30.75908         1.04250
O         51.37302        38.43958         2.42487
O         42.68782        41.28363         2.19195
O         36.94655        29.19358         2.31244
O         39.49488        33.64391         1.52242
O         45.07932        32.67633        -2.06380
O         49.58669        33.34759         1.57085
O         38.70709        35.35912        -1.73478
O         45.63314        29.47130        -2.52555
O         44.75831        37.30980         1.86924
O         42.72041        45.58725         1.35809
O         31.84167        40.18418        -1.26742
O         50.50762        30.96303         1.66162
H         49.83193        31.40825         2.22202
O         35.95347        44.54704         2.14769
H         36.65424        45.23235         2.17065
O         41.39360        49.15068         0.04559
H         41.54778        50.06111        -0.28205
O         39.64384        26.91871         2.90682
H         40.54692        26.59251         3.09840
O         48.92843        37.45225         2.09675
H         49.77128        37.66379         2.57171
O         39.49992        41.95234        -1.89689
H         38.96055        42.48402        -2.52598
O         34.79506        41.84918        -1.75429
H         34.74889        42.80784        -1.95665
O         45.70730        44.29368        -1.66001
H         45.44114        43.37227        -1.89931
O         44.19643        47.81688         0.96162
H         43.95979        47.30975         1.76905
O         35.79217        28.53993        -1.13406
H         35.03973        28.12383        -1.60464
O         38.96949        47.68249         0.83259
H         39.72075        48.31758         0.75157
O         46.54700        35.47300        -1.91119
H         46.61436        36.44815        -2.06100
O         41.81327        27.22277        -2.25897
H         41.64963        26.27876        -2.47208
O         39.68094        29.64872         2.62234
H         38.87785        29.73767         3.18175
O         40.90549        39.35699         2.52717
H         41.08453        40.22448         2.95767
O         51.48630        42.72400         3.09188
H         52.29340        43.21320         3.35042
O         37.72960        32.62497        -1.52732
H         37.33801        33.39992        -2.02633
O         41.70433        35.32527         1.93239
H         40.95491        34.84185         2.35171
O         41.23722        31.18165        -1.65802
H         40.38176        30.79587        -1.94240
O         51.19859        39.37516        -0.86868
H         52.05196        39.69630        -1.22290
O         43.09411        31.27188         1.46579
H         43.88392        31.77982         1.74475
O         38.00000        37.83958        -2.12380
H         38.41960        37.08432        -2.59852
O         46.01904        44.08902         1.99226
H         46.48570        43.37545         2.54156
O         36.93081        34.37905         1.58240
H         36.12719        34.38154         2.16057
