         272
 CSIRO Nanostructure Databank - Neutral Graphene Oxide Data Set
C        -11.01077         0.65447        -0.41867
C         -9.75349         1.43060        -0.60298
C         -8.49632         0.62933        -0.67148
C         -7.20136         1.28519        -0.28616
C         -5.94080         0.51716        -0.48470
C         -4.63828         1.23086        -0.71831
C         -3.42146         0.48669        -0.27242
C         -2.12481         1.21787         0.01539
C         -1.21983         0.67648         1.10022
C         -0.01884         1.53348         1.49593
C          1.17266         0.81929         2.10998
C          2.54877         1.52042         2.12072
C          3.80852         0.74526         1.82529
C          5.08911         1.47992         1.44766
C          6.17571         0.81575         0.54859
C          6.75501         1.74243        -0.54942
C          7.75711         1.13029        -1.46937
C          8.92683         1.90240        -2.09023
C         10.25013         1.15221        -1.93308
C         -9.69451         2.88631        -0.12868
C         -8.36671         3.57817        -0.39431
C         -7.12177         2.79738        -0.19149
C         -5.79360         3.48451        -0.35675
C         -4.65959         2.71497        -1.05132
C         -3.24051         3.37955        -0.96841
C         -1.98658         2.64135        -0.47223
C         -0.64125         3.43856        -0.23229
C          0.12151         2.94799         1.01087
C          1.39631         3.70245         1.40042
C          2.57422         3.02550         2.03638
C          3.93403         3.73527         2.28864
C          5.13924         2.96587         1.69589
C          6.09159         3.79609         0.87454
C          6.87023         3.22429        -0.25848
C          8.04487         4.06328        -0.81766
C          9.09286         3.27724        -1.52940
C         -8.30534         4.90633        -0.76338
C         -7.08530         5.64661        -0.88446
C         -5.78471         4.99990        -0.46629
C         -4.59309         5.63400        -1.22107
C         -3.26569         4.88571        -1.02772
C         -2.04646         5.68700        -0.62420
C         -0.78587         4.96980        -0.26978
C          0.43163         5.75245         0.16805
C          1.58449         5.05902         0.80086
C          2.72839         5.91717         1.26391
C          3.91176         5.23892         1.87633
C          5.23743         5.95342         1.80673
C          6.43844         5.16307         1.39307
C          7.62463         5.88226         0.87172
C          8.67315         4.96978         0.27956
C         -7.03920         7.00869        -1.25212
C         -5.84081         7.74631        -1.21182
C         -4.66364         7.03642        -0.59415
C         -3.40377         7.86487        -0.44464
C         -2.15014         7.10484        -0.04583
C         -0.82327         7.85178        -0.47902
C          0.36454         7.27860         0.33439
C          1.68719         7.94528        -0.00557
C          2.90455         7.22150         0.51630
C          4.16885         8.00262         0.71054
C          5.27216         7.43566         1.55714
C          6.60273         8.11407         1.34898
C          7.74555         7.23139         0.99596
C         -5.68324         9.08308        -1.70118
C         -4.51080         9.79368        -1.62282
C         -3.33290         9.29215        -0.88372
C         -2.01760        10.00036        -0.81993
C         -0.87980         9.37487        -0.43307
C          0.36290        10.14787         0.00992
C          1.70801         9.42805        -0.06383
C          2.88427        10.10715         0.04559
C          4.19961         9.45092         0.28272
C          5.43917        10.20838         0.62462
C          6.58219         9.54690         0.90756
C        -11.07709        -0.68210        -0.54072
C         -9.91017        -1.59165        -0.88096
C         -8.57191        -0.87929        -0.58201
C         -7.30086        -1.65389        -0.71480
C         -5.97595        -0.94823        -0.81770
C         -4.75008        -1.71893        -0.41061
C         -3.68277        -0.88968         0.29192
C         -2.70106        -1.50103         1.24568
C         -1.42121        -0.73698         1.61019
C         -0.25881        -1.51181         2.29591
C          1.10956        -0.69475         2.22737
C          2.43193        -1.43850         1.99590
C          3.52574        -0.63276         1.28690
C          4.43573        -1.25715         0.26260
C          5.81009        -0.63955         0.02246
C          6.77509        -1.22805        -0.97987
C          7.85422        -0.36230        -1.56789
C          9.14948        -1.04469        -1.90030
C         10.35396        -0.18543        -1.89001
C         -9.95420        -2.86541        -0.01075
C         -9.31943        -4.00157        -0.24859
C         -7.16726        -3.08732        -1.21865
C         -6.15859        -3.90105        -0.41832
C         -4.89700        -3.17385        -0.04266
C         -4.13666        -3.65680         1.19878
C         -2.75991        -2.98836         1.44671
C         -1.44694        -3.71273         1.53077
C         -0.13123        -3.00371         1.88217
C          1.20153        -3.72336         1.78929
C          2.50498        -2.94469         1.88102
C          3.83877        -3.52659         1.30306
C          4.16325        -2.73806         0.02203
C          4.10495        -3.49072        -1.29872
C          6.75041        -2.51089        -1.81812
C          8.07018        -3.25453        -1.73996
C          9.21751        -2.51608        -1.72831
C         -8.97550        -5.27419        -0.44863
C         -7.71317        -5.94388        -0.10270
C         -6.59176        -5.09856         0.52872
C         -5.29353        -5.92090         0.80255
C         -4.03063        -5.18799         1.14149
C         -2.74023        -5.78289         0.56870
C         -1.39632        -5.09288         0.94481
C         -0.08252        -5.82507         0.96712
C          1.24131        -5.07709         1.12184
C          2.53398        -5.78396         0.84480
C          3.86255        -5.07115         1.03132
C          5.00130        -5.70471         0.23541
C          6.23077        -4.94055        -0.18850
C          7.10913        -5.50621        -1.24861
C          8.06916        -4.70963        -1.82614
C         -7.63314        -7.29485        -0.22538
C         -6.49553        -8.12670         0.33704
C         -5.21291        -7.31408         0.24758
C         -3.91038        -8.02943         0.27028
C         -2.69249        -7.29518         0.75041
C         -1.39853        -8.04693         0.77366
C         -0.07833        -7.32436         0.94207
C          1.21121        -8.02662         0.67422
C          2.58160        -7.32540         0.77805
C          3.52828        -7.78595        -0.31725
C          4.76512        -6.98543        -0.53335
C          5.95317        -7.66953        -1.11580
C          7.05062        -6.93187        -1.47974
C         -6.28336        -9.46971        -0.33263
C         -5.10715       -10.11471        -0.28602
C         -3.91755        -9.54274         0.45666
C         -2.56017       -10.12902         0.10152
C         -1.39732        -9.47362         0.32642
C         -0.05837       -10.19788         0.24964
C          1.07969        -9.26839        -0.21909
C          2.39657        -9.97172        -0.43444
C          3.54086        -9.25266        -0.59467
C          4.78119        -9.84304        -1.05766
C          5.88790        -9.09708        -1.33315
O         -2.96641         4.08192        -2.20960
O          4.88568        -5.81473         1.70065
O         -2.28756        -3.53549         2.70529
O          1.04762         0.17879         3.39755
O         -1.87388         0.41042         2.37977
O         -6.24705         3.12392         0.96048
O          6.40662         1.51140        -1.93356
O          3.04784        -2.88097        -0.97540
O         -0.59916        -5.21516        -0.27034
O         -5.56018         5.44946         0.91991
O          2.94738         6.00131         2.69076
O          6.60110        -3.93830         0.41785
O          0.45130        -3.75690         3.00994
O         -3.77255         0.56861        -1.67958
O          6.90248        -1.50573         0.44139
O         -6.51095         0.69416         0.85044
O         -1.04004         5.47851        -1.63891
O         -5.04796         6.80091         0.82223
O          1.50816         5.14695        -0.63643
O         -7.08768        -4.56132         1.70021
O          5.73853         2.04786         2.62809
O          3.62435        -6.91597        -1.47831
O         -4.76127        -5.88079         2.17038
O          0.63785        -8.03390         2.02174
O         -0.62970         7.62523        -1.83991
O          3.29000        -0.46995        -0.16738
O         -9.07236         1.19722        -1.88533
O          5.59086         3.89869        -0.50846
O         -1.54833         1.50209        -1.28174
O         -0.62189         2.67663         2.21268
O          6.16737         5.43501         2.79474
O          3.39272         0.97739         3.17750
O         -7.91164        -1.44208         0.59152
O         -2.19717        -7.79985         2.01544
O          1.55574         3.68265         2.84647
O         -3.90372        -0.83394         1.72642
O          2.54613         7.22363        -0.89712
O          1.84056        -5.09458        -0.22317
O         -3.69719         8.91880         0.52964
O         -4.94328        -4.09727        -1.17286
O          4.63201         8.38266        -0.63174
O          8.15991        -0.71264        -2.96050
O          2.77469        -2.26799         3.12878
O         -5.05281        -1.44617        -1.80559
O         -4.46208        -7.52742        -0.98345
O          5.85333        -2.83697        -2.56598
O         -7.61826        -3.43492        -2.29563
O          5.90942         8.11637         2.66707
O         -9.92797         2.92279         1.28877
H         -9.12982         2.59730         1.75617
O         -5.05866         2.78085        -2.43900
H         -4.46213         2.17944        -2.94129
O         -2.91106        -5.52518        -0.83519
H         -2.08406        -5.75772        -1.31265
O          3.17781        -7.79510         1.99837
H          2.47561        -7.83031         2.68709
O          4.12011         3.71557         3.70025
H          3.34962         4.17082         4.10419
O          7.33825         0.65921         1.37775
H          7.07562         0.27396         2.24084
O         -0.62422        -1.59120         3.66521
H         -0.74009        -0.67748         4.00693
O          0.23213         3.08798        -1.30961
H         -0.02108         3.61351        -2.10038
O         -9.99508        -1.91505        -2.26883
H         -9.27342        -2.55147        -2.49555
O          0.14388        10.45258         1.40383
H          0.17390         9.59624         1.89452
O          0.25819       -10.74164         1.53125
H          0.23709       -10.00508         2.18392
O         -4.11038        -9.81816         1.86509
H         -3.45073        -9.28078         2.36379
O          8.68022         2.01786        -3.51963
H          8.42316         1.11512        -3.82588
O         -6.79504        -8.36758         1.73196
H         -6.80864        -7.50494         2.19976
O          7.54012         4.96681        -1.82925
H          6.99320         4.45036        -2.46029
O         -4.89869        -3.25954         2.33633
H         -5.74619        -3.79531         2.37169
O         -2.25534         6.91045         1.38280
H         -2.85050         7.61781         1.73105
O         -4.85959         5.73966        -2.61312
H         -4.47798         4.93824        -3.04712
O          4.82933        -3.21940         2.27177
H          5.70067        -3.54203         1.93021
O          0.20835         7.58337         1.74203
H         -0.66497         7.22500         2.04530
O          9.18062         4.09283         1.28634
H          9.32042         4.59771         2.11376
O          0.66099        -8.76078        -1.51684
H          1.40199        -8.25712        -1.91870
H         11.34032        -0.66855        -1.82271
H         11.16434         1.76421        -1.94031
H          9.92996         3.86606        -1.93951
H          9.50651         5.57373        -0.17805
H          8.64847         7.72146         0.59579
H          7.52447        10.10724         1.01412
H          5.45509        11.29559         0.45432
H          2.86581        11.20855         0.06711
H          0.41458        11.12343        -0.53489
H         -2.04923        11.10078        -0.87162
H         -4.45332        10.79209        -2.08044
H         -6.54532         9.54190        -2.20902
H         -7.96561         7.50148        -1.58546
H         -9.24781         5.44265        -0.95763
H        -10.52239         3.46617        -0.60889
H        -11.91653         1.22506        -0.16245
H        -12.05230        -1.17491        -0.40554
H        -10.45931        -2.75565         0.96808
H         -9.72977        -5.92266        -0.93509
H         -8.50489        -7.83600        -0.63053
H         -7.13892        -9.92474        -0.85616
H         -4.99761       -11.09941        -0.76692
H         -2.52079       -11.18893        -0.19852
H         -0.13825       -11.05310        -0.46653
H          2.39122       -11.05521        -0.62832
H          4.79398       -10.92758        -1.23894
H          6.78715        -9.58756        -1.73407
H          7.89547        -7.41793        -1.99132
H          8.84361        -5.18144        -2.45358
H         10.20444        -3.00030        -1.68060
