         324
 CSIRO Nanostructure Databank - Neutral Graphene Oxide Data Set
C          2.16194         1.93797         2.88740
C          2.17178         3.33200         3.00825
C          3.10020         1.28507         2.09843
C          3.13728         4.11102         2.33246
C          2.02312         6.28586         2.96242
C          1.75221         7.62185         2.68531
C          3.02746         5.57219         2.26737
C          2.30461         8.23413         1.53617
C          1.56815        10.61295         1.97667
C          1.59173        12.00682         1.64934
C          2.04715         9.62219         1.15873
C          2.49877        12.68441         0.84019
C          1.36016        14.89677         1.26227
C          1.41192        16.28206         1.41460
C          2.50409        14.14487         0.92043
C          2.63219        16.98746         1.35709
C          2.60360        18.43758         1.29043
C          4.10707         2.02741         1.42482
C          4.10366         3.44811         1.54043
C          5.15195         1.37116         0.72040
C          5.22873         4.20941         0.96916
C          3.79484         6.27600         1.29421
C          3.26245         7.48485         0.81598
C          5.11437         5.73962         0.85958
C          4.79714         8.57288        -0.61880
C          3.57169        10.68479        -0.19504
C          3.61841        12.04616         0.14998
C          4.72491         9.97721        -0.62094
C          4.83769        12.78203        -0.10061
C          3.73320        14.83195         0.74458
C          3.80871        16.20872         1.10377
C          4.91584        14.15939         0.27274
C          5.10219        16.77463         1.17946
C          3.63333        19.29962         1.00212
C          5.02083        18.90119         1.04429
C          6.20877         2.08527         0.10215
C          6.22296         3.50087         0.15983
C          7.35953         1.37885        -0.38765
C          7.20016         4.26488        -0.60575
C          6.24983         6.58591         0.19832
C          6.01112         7.84985        -0.64765
C          7.29330         5.72837        -0.49835
C          7.19383         8.52306        -1.01734
C          5.88404        10.74516        -1.09327
C          5.97372        12.17483        -0.72557
C          7.14232         9.93564        -1.44560
C          7.18509        12.88614        -0.87961
C          6.12630        14.88292         0.08238
C          6.21286        16.25135         0.50353
C          7.28791        14.24535        -0.44908
C          7.37581        17.06102         0.25152
C          6.11185        19.28224         0.30255
C          7.34081        18.49990         0.24618
C          8.50496         2.03734        -0.82809
C          8.39659         3.46966        -1.19625
C          9.75077         1.35147        -0.91461
C          9.64593         4.24453        -1.64763
C          8.48197         6.39915        -0.85692
C          8.46921         7.86531        -0.96150
C          9.67692         5.66141        -1.08892
C          9.65241         8.58912        -1.22271
C          8.41608        10.70548        -1.61596
C          8.40193        12.22422        -1.39977
C          9.69784        10.00322        -1.45199
C          9.69829        12.90808        -1.24263
C          8.51587        14.98294        -0.55643
C          8.56537        16.39687        -0.19355
C          9.67805        14.29413        -1.02065
C          9.76997        17.14328        -0.26898
C          8.53052        19.20413        -0.03456
C          9.77399        18.56997        -0.18278
C         10.97158         2.00452        -1.12032
C         10.96081         3.46415        -1.42644
C         12.21288         1.32501        -1.03067
C         12.22693         4.19883        -1.11949
C         10.93038         6.36440        -0.93037
C         10.92568         7.89375        -1.02082
C         12.23220         5.67169        -0.99930
C         12.17204         8.52362        -1.52624
C         10.89842        10.73988        -1.48114
C         10.92929        12.17524        -1.42254
C         12.18218        10.03263        -1.67181
C         12.18892        12.84447        -1.43556
C         10.91231        15.04473        -1.30121
C         10.97788        16.44581        -0.76121
C         12.19953        14.30640        -1.53762
C         12.30646        16.88763        -0.33891
C         10.95775        19.41593        -0.44771
C         12.22262        19.04712        -0.09535
C         13.46055         1.98971        -0.86185
C         13.40207         3.44557        -0.59728
C         14.70495         1.36718        -0.74955
C         14.67166         4.21309        -0.38917
C         13.39416         6.37195        -0.85659
C         13.45443         7.78053        -1.31892
C         14.65702         5.70770        -0.46241
C         14.73740         8.54058        -1.36119
C         13.46930        10.74176        -1.50916
C         13.45631        12.16583        -1.42267
C         14.68400        10.03162        -1.43857
C         14.69875        12.87005        -1.22038
C         13.51344        15.07070        -1.43026
C         13.46501        16.44077        -0.87229
C         14.75001        14.32064        -1.07935
C         14.74295        17.25796        -0.95543
C         13.56366        19.54440        -0.39484
C         14.66046        18.73968        -0.54809
C         15.94296         2.09253        -0.56846
C         15.95437         3.51491        -0.49082
C         17.18196         1.40784        -0.52325
C         17.17333         4.25790        -0.49488
C         15.95349         6.46480        -0.43350
C         15.96214         7.98229        -0.63905
C         17.21295         5.69811        -0.57039
C         17.20962         8.50531        -1.31123
C         15.90448        10.73350        -1.31069
C         15.89947        12.12794        -1.12892
C         17.18806        10.00436        -1.49021
C         17.16668        12.78349        -0.73777
C         15.88044        14.99881        -0.66163
C         15.86871        16.47066        -0.23723
C         17.13915        14.25694        -0.41208
C         17.20872        17.18922        -0.30434
C         15.98140        19.42532        -0.81488
C         17.22001        18.61494        -0.45338
C         18.40420         2.10613        -0.39550
C         18.38781         3.52744        -0.39689
C         19.66282         1.39614        -0.34763
C         19.63548         4.27894        -0.22979
C         18.45310         6.38115        -0.81190
C         18.49136         7.80392        -1.12992
C         19.65803         5.67970        -0.67013
C         19.67227         8.51107        -1.33416
C         18.46718        10.70891        -1.31418
C         18.44779        12.07600        -1.01559
C         19.69130         9.96764        -1.33825
C         19.66877        12.75319        -0.75226
C         18.45674        15.01199        -0.55039
C         18.40814        16.49154        -0.07961
C         19.62360        14.07497        -0.21718
C         19.59277        17.28442         0.11869
C         18.41659        19.32041        -0.48235
C         19.65007        18.68302        -0.18510
C         20.88928         2.03746        -0.30146
C         20.93375         3.51031        -0.17680
C         22.14624         1.34893        -0.31612
C         22.19735         4.21506        -0.47763
C         20.92962         6.27915        -1.08947
C         20.93461         7.74956        -1.48357
C         22.20997         5.59896        -0.75688
C         22.25176         8.47782        -1.50926
C         20.91983        10.67548        -1.20644
C         20.91750        12.04909        -0.86417
C         22.21595         9.98085        -1.41969
C         22.16406        12.75379        -0.59727
C         20.82646        14.53737         0.32562
C         20.80419        16.74036         0.60989
C         22.09099        14.07948        -0.05442
C         22.04652        17.30163         0.43407
C         20.90508        19.35951        -0.18488
C         22.12192        18.67681         0.03655
C         23.36233         2.02635        -0.28406
C         23.39641         3.48012        -0.38692
C         24.61299         1.32160        -0.20335
C         24.62950         4.17383        -0.41275
C         23.44219         6.28620        -0.81248
C         23.52366         7.73967        -1.14785
C         24.64002         5.57608        -0.59574
C         24.69978         8.50415        -0.63594
C         23.50158        10.69327        -1.04037
C         23.39903        12.09439        -0.61157
C         24.68581         9.91834        -0.58370
C         24.65860        12.81356        -0.36918
C         23.28327        14.97781         0.00684
C         23.27457        16.45521         0.30551
C         24.62087        14.29149        -0.03385
C         24.51848        17.14146         0.83620
C         23.42399        19.27395        -0.02312
C         24.59679        18.57136         0.31406
C         25.82845         1.97808        -0.15642
C         25.86773         3.43496        -0.22511
C         27.07965         1.26256         0.00705
C         27.05533         4.10183        -0.06128
C         25.91455         6.32613        -0.53073
C         25.86061         7.77876        -0.24762
C         27.14948         5.57387        -0.14216
C         26.97785         8.40482         0.33151
C         25.77955        10.61663        -0.01011
C         25.84848        12.03811         0.03909
C         26.87301         9.84495         0.59567
C         27.02702        12.74197         0.35753
C         25.80865        14.94717         0.53052
C         25.81093        16.35374         0.69114
C         27.04991        14.20293         0.47560
C         27.02476        17.04973         0.78098
C         25.85485        19.18729         0.29857
C         27.06389        18.47509         0.58044
C         28.28215         1.90440         0.11542
C         28.37271         3.40088        -0.05096
C         29.55596         1.22384         0.29417
C         29.31192         4.03900         0.95727
C         28.24147         6.26289         0.59670
C         28.16421         7.70289         0.74788
C         29.29924         5.51925         1.08594
C         29.30386         8.40977         1.21306
C         28.15787        10.60143         0.96871
C         28.23644        12.03364         0.66507
C         29.39705         9.82891         1.11285
C         29.47163        12.67531         0.75085
C         28.25684        14.86120         0.63080
C         28.28717        16.29103         1.10083
C         29.54862        14.13534         0.36376
C         29.56052        17.01550         0.75925
C         28.30386        19.13185         0.52414
C         29.54546        18.42345         0.58759
C         30.65205         1.87717         0.75503
C         30.55236         3.25717         1.28848
C         31.75165         4.03445         1.66123
C         30.42215         6.13354         1.81339
C         30.45258         7.69289         1.80037
C         31.68049         5.35438         1.92360
C         31.72175         8.42263         1.88094
C         30.62067        10.51512         1.24772
C         30.66357        11.95862         1.10613
C         31.79823         9.74410         1.56669
C         31.83895        12.70006         1.34763
C         30.76533        14.85443         0.89173
C         30.78290        16.30686         0.77425
C         31.86475        14.11040         1.28448
C         31.99325        17.02621         0.63629
C         30.77672        19.11099         0.43424
C         31.97998        18.41299         0.47121
O          2.35584         9.98116        -0.17202
O         30.09369         6.91176         2.99514
O          5.78120         5.10734         2.01513
O         12.94439        14.77384        -2.72508
O         11.92118         3.78581        -2.50403
O         13.81513         3.78200         0.75556
O         17.07855         9.08071        -2.63503
O         15.05515        17.34085        -2.32620
O          5.27815        17.88682         2.00169
O         20.86189         6.71730        -2.50627
O         23.07203        10.56640        -2.44589
O          7.26110         3.76189        -2.01083
O          3.60332         7.87104        -0.47999
O         17.09975        13.28968         0.67459
O         10.80323        16.17890        -2.20665
O         27.15488        10.24660         1.98005
O         24.93815        13.82351        -1.40263
O         10.99896         7.26280         0.28145
O         15.21114         6.20600         0.82264
O         23.32548        16.00413        -1.08286
O         26.94218         6.01565        -1.54875
O         29.42271         3.37778         2.24708
O          6.18822        10.32216        -2.47037
O         14.31637         7.80725        -2.53389
O         12.31133        17.86162         0.66685
O         20.75122        15.52902         1.29387
O         23.15608         8.01093        -2.54377
O          8.33490        11.61581        -2.73966
O         20.32446         4.02008         1.06853
O         12.07894         9.11304        -2.83644
O         15.98083         8.59955         0.67353
H         15.56238         7.95962         1.29963
O         28.30391        16.18953         2.59168
H         27.49163        15.70644         2.85762
O          9.49184         4.39768        -3.08060
H         10.39769         4.46363        -3.46324
O         29.71302        14.15025        -1.11039
H         30.54085        13.66559        -1.31548
O          6.92477         7.20825         1.34734
H          7.04170         6.50358         2.02645
O         18.59397        15.17089        -1.99906
H         19.37296        15.73636        -2.18658
O         16.04785        19.71692        -2.21838
H         15.73083        18.87345        -2.66154
O         24.29983        17.24146         2.27938
H         24.99717        17.82352         2.64897
O         15.50521        16.43789         1.17371
H         16.15023        15.86989         1.64661
O         28.98333         3.65908        -1.36293
H         28.35132         4.17957        -1.90571
H          1.39590         1.35680         3.41934
H          1.40311         3.81634         3.62489
H          3.09030         0.18947         2.01239
H          1.46126         5.79127         3.76572
H          1.01881         8.16666         3.29602
H          1.16076        10.34086         2.96173
H          0.92810        12.63295         2.26589
H          0.38696        14.39396         1.35162
H          0.47874        16.83807         1.58766
H          1.58893        18.86917         1.29599
H          5.17101         0.27192         0.70298
H          3.38899        20.33696         0.72605
H          7.40227         0.29249        -0.22001
H          6.06496        20.19102        -0.31626
H          9.75914         0.27521        -0.68584
H          8.48575        20.30171        -0.09324
H         12.19578         0.22495        -0.99063
H         10.78009        20.36795        -0.96857
H         14.76793         0.27395        -0.86093
H         13.71991        20.63756        -0.41493
H         17.19308         0.30899        -0.57431
H         16.02182        20.40376        -0.26425
H         19.63473         0.29689        -0.39610
H         18.40555        20.39216        -0.72880
H         22.14301         0.24831        -0.31620
H         20.92211        20.43533        -0.41415
H         24.58918         0.22278        -0.14530
H         23.51259        20.32951        -0.32426
H         27.03592         0.16564         0.09430
H         25.93074        20.24645         0.00720
H         29.62163         0.15746         0.02905
H         28.32611        20.21791         0.34924
H         31.61751         1.35626         0.84075
H         32.71502         3.50706         1.73529
H         32.58243         5.88390         2.26271
H         32.62058         7.89439         2.22744
H         32.77188        10.24795         1.63436
H         32.75746        12.18608         1.65935
H         32.78765        14.62247         1.59390
H         32.95256        16.49035         0.63770
H         30.77136        20.20111         0.29304
H         32.92948        18.95462         0.35789
