         276
 CSIRO Nanostructure Databank - Neutral Graphene Oxide Data Set
C        -11.04714         0.92182         1.00139
C         -9.79739         1.71468         0.84055
C         -8.49524         0.97914         0.83409
C         -7.21988         1.64002         0.23745
C         -6.43591         0.71279        -0.72061
C         -5.16669         1.31553        -1.37781
C         -3.83708         0.58739        -1.37965
C         -2.55505         1.29058        -1.81847
C         -1.23289         0.57896        -1.69938
C          0.04645         1.37427        -1.52238
C          1.36405         0.66655        -1.79018
C          2.67280         1.43695        -1.84496
C          4.01352         0.70296        -1.61283
C          5.17872         1.46743        -1.00363
C          6.34652         0.78105        -0.37280
C          7.43651         1.45075         0.11839
C          8.37867         0.66791         0.97167
C         10.28472         1.79777        -0.16143
C         11.28412         0.87826         0.41546
C         -9.84662         3.09254         0.34978
C         -8.69183         3.71675        -0.14555
C         -7.52406         2.96189        -0.43241
C         -6.46163         3.57925        -1.21756
C         -5.20299         2.81238        -1.63450
C         -3.89422         3.55170        -1.81531
C         -2.57328         2.80513        -2.12525
C         -1.31980         3.61368        -1.68648
C          0.00054         2.87039        -1.53279
C          1.28930         3.67130        -1.58718
C          2.62357         2.96992        -1.68028
C          3.85369         3.69743        -1.15635
C          5.07393         2.95040        -0.70256
C          6.10650         3.60814         0.20605
C          7.42533         2.92852         0.33191
C          8.68685         3.73674        -0.03816
C          9.96254         3.02346         0.37407
C         -8.67984         5.16690        -0.29528
C         -7.56461         5.86632        -0.64836
C         -6.43760         5.11350        -1.24049
C         -5.07936         5.79353        -1.39309
C         -3.89167         4.87665        -1.05715
C         -2.64822         5.46823        -0.44467
C         -1.36391         5.00536        -1.08301
C         -0.03630         5.80650        -0.93367
C          1.16215         4.89984        -0.69423
C          2.37513         5.52888        -0.11687
C          3.69252         5.10406        -0.64657
C          4.88977         5.85033        -0.21454
C          6.07553         5.10988         0.36180
C          7.38396         5.85567         0.37326
C          8.57685         5.20266         0.33949
C         -7.55574         7.38862        -0.61923
C         -6.23423         8.05995        -1.10779
C         -5.08676         7.13943        -0.66990
C         -3.88881         7.67659         0.05182
C         -2.70522         6.75150         0.47409
C         -1.37373         7.51003         0.68733
C         -0.11475         7.07653        -0.05108
C          1.12532         7.67961         0.55786
C          2.32525         6.79833         0.70508
C          3.52872         7.23345         1.48365
C          4.87352         6.71540         1.03044
C          5.95254         7.76720         0.90514
C          7.20097         7.29440         0.59208
C         -6.11790         9.43071        -0.46251
C         -4.96233         9.94226        -0.02332
C         -3.66083         9.19173        -0.15804
C         -2.56659         9.73911         0.72734
C         -1.46746         8.99570         0.92153
C         -0.47001         8.86575         2.04644
C          0.99917         8.88980         1.54334
C          2.06878         8.87544         2.58544
C          3.51084         8.55929         2.27490
C          4.38444         9.56684         1.55124
C          5.56256         9.16746         1.01467
C        -11.09380        -0.41615         0.88872
C         -9.87530        -1.23851         0.51971
C         -8.60712        -0.54995         1.06066
C         -7.34793        -1.27510         0.60010
C         -6.16376        -0.61453        -0.01132
C         -4.93167        -1.45236        -0.30258
C         -3.67046        -0.59652        -0.39940
C         -2.44990        -1.47501        -0.65790
C         -1.20230        -0.85954        -1.22686
C          0.12519        -1.52155        -1.06691
C          1.36296        -0.84577        -1.59202
C          2.68991        -1.56514        -1.49239
C          4.06658        -0.88535        -1.58524
C          4.94844        -1.27100        -0.37662
C          6.33897        -0.66620        -0.41501
C          7.50906        -1.35160        -0.24262
C          8.59995        -0.80530         0.63746
C          9.98674        -1.30685         0.25172
C         11.16450        -0.46889         0.52659
C         -9.89974        -2.68142         1.02972
C         -8.74294        -3.44275         0.94515
C         -7.63248        -2.72684         0.24886
C         -5.71829        -3.36830         1.44541
C         -4.81054        -2.81047         0.32576
C         -3.47354        -3.45616         0.48183
C         -2.36524        -2.79052         0.04838
C         -1.04480        -3.45642         0.02783
C          0.13648        -2.81266        -0.62276
C          1.36972        -3.63176        -0.66130
C          2.67984        -3.00426        -1.00320
C          3.98772        -3.69138        -0.60447
C          5.04551        -2.77311         0.09748
C          6.35243        -3.53499        -0.19412
C          7.61056        -2.79429        -0.49648
C          8.96733        -3.48099        -0.60313
C         10.10821        -2.62539        -0.06859
C         -8.57347        -4.85220         1.06350
C         -7.30209        -5.52813         1.03838
C         -6.05314        -4.87103         1.63820
C         -4.71918        -5.63580         1.35778
C         -3.58916        -4.98258         0.53575
C         -2.25919        -5.69559         0.71457
C         -1.04238        -4.93695         0.29792
C          0.09238        -5.72545        -0.26228
C          1.34984        -4.97769        -0.00961
C          2.58398        -5.72784         0.26855
C          3.87975        -4.98139         0.21756
C          5.16334        -5.68992         0.50201
C          6.49661        -4.91440         0.45413
C          7.73108        -5.66345        -0.01513
C          8.87531        -4.96966        -0.24171
C         -7.26120        -6.89765         0.86303
C         -6.11032        -7.83498         1.22353
C         -4.74993        -7.13507         1.27566
C         -3.53213        -7.91742         0.83348
C         -2.22210        -7.18593         0.68250
C         -1.18762        -7.94830        -0.16032
C          0.08379        -7.19965        -0.47794
C          1.45229        -7.97042        -0.51885
C          2.57648        -7.22403         0.27656
C          3.87288        -7.94312         0.46544
C          5.17924        -7.18486         0.63981
C          6.47050        -7.90887         0.47125
C          7.74537        -7.20089        -0.00270
C         -6.10556        -9.03456         0.28723
C         -5.01970        -9.66528        -0.19404
C         -3.63933        -9.24467         0.15998
C         -2.38562        -9.61249        -0.63720
C         -1.07137        -9.42113         0.11106
C          0.10749       -10.10082         0.06061
C          1.40603        -9.41998        -0.00903
C          2.60623       -10.05747         0.11644
C          3.92551        -9.34019        -0.17159
C          5.20837       -10.05599         0.20760
C          6.37444        -9.39892         0.33632
O         -6.44672        -8.29367         2.55322
H         -6.07213        -7.63074         3.17858
O         -0.64889        -3.99758         1.33944
O         -3.20481         9.30169        -1.53623
H         -3.97558         9.15044        -2.12759
O          5.47720         5.52703         1.72154
O          2.56588         6.35033         2.10054
O          6.75339        -3.32730        -1.56613
O         -5.07326         7.20737         0.78695
O          1.98382         1.03046        -3.05441
O         -6.32773         1.95294         1.33487
H         -6.89984         2.20676         2.09657
O         -2.11770        -1.67081        -2.05396
O         -4.79083         3.34431        -2.92748
O         -0.90027         7.44801         2.13611
O          1.59616         4.51561         0.62703
O          6.56687         3.10751         1.50531
O         -2.99544         6.29059         1.79033
H         -3.94039         6.02138         1.81808
O         -6.29237        -0.67001         1.44566
O         -4.40718        -6.43648         2.51780
O          9.28330        -3.54110        -2.03001
H          8.43083        -3.69090        -2.50100
O          5.07699         1.21039        -2.44604
O         -2.47567         2.82711        -3.56094
H         -2.46571         3.76147        -3.85959
O          0.66689         8.11711        -0.73895
O          4.36257         6.12978        -1.50947
O          6.01018        -7.52627         1.81453
O         -3.46760         4.47274         0.27751
O         -1.43120         4.79311        -2.53106
O          1.81524        -7.98389        -1.86639
O         -6.91998         4.35973        -2.38345
O          6.79474        -4.61044         1.85710
H          6.60912        -5.42943         2.37373
O         -4.77645         0.44241        -2.47797
O         -4.86277         6.09422        -2.78467
H         -5.25198         5.35057        -3.30498
O         -2.01779        -8.35785        -1.36279
O          8.77233         1.09020         2.05502
O          1.95676        -3.80268        -1.98910
O         -3.38781        -9.16169         1.59750
O          4.67205        -1.36661        -2.78137
H          4.08021        -1.13783        -3.53164
O          2.02745         3.69421        -2.81351
O          1.96746        -1.48557        -2.75470
O         -0.10022        -6.27069        -1.58589
O          8.33521        -1.46836         1.91977
H          8.55587        -0.80564         2.61837
O          1.78284        -5.11856         1.35902
O          4.51905        -4.15885        -1.86072
H          4.59068        -3.39179        -2.47874
O         -5.73516        -2.70640         2.47561
H         -6.07233        -4.17263         3.48391
O         -1.89629        -6.46679         1.90089
O          7.99364        -7.67102        -1.32960
H          8.73393        -7.15858        -1.71387
O         -7.30778        -3.16658        -0.84652
O         -5.08021        -2.63783        -1.11704
O          2.91560        -7.81376         1.55878
O          5.03896         3.65668        -1.98986
O         -6.33707        -5.01526         3.03930
O          4.07388        -9.17479        -1.60230
H          3.22091        -8.79072        -1.97136
O         -7.34270         0.43589        -1.80003
H         -6.82747         0.03992        -2.53903
O         -1.90957         0.64413        -2.96375
O         -8.67712        -0.79026         2.47423
H         -7.85266        -0.44518         2.88071
O         -0.00273         2.11132        -0.26015
O         -9.76108        -1.26708        -0.92205
H        -10.50280        -1.78911        -1.29144
O          4.39400        -5.05160         1.57541
O         -6.26176         8.22680        -2.52444
H         -7.20778         8.32946        -2.77761
O         -8.87899         1.66757         2.05893
O          1.20054        10.08898         0.76333
H          0.83411         9.91561        -0.13666
O          4.17619         8.27082         3.51925
H          3.81784         7.42469         3.86336
O         -8.60477         7.89722        -1.45191
H         -9.36967         7.28718        -1.41655
O          0.30865         6.29987        -2.24415
H         -0.39695         6.89168        -2.57694
O          4.27423        -0.52957         0.67473
H          4.49110        -0.98897         1.52716
O          9.70823         1.33461        -1.30153
H          9.12064         2.04537        -1.67129
O          4.86372        -2.69464         1.51335
H          5.44223        -3.36748         1.96058
O          8.60666         3.72537        -1.51101
H          9.31741         4.30652        -1.85604
O         -3.45786        -0.00586         0.90477
H         -4.31021         0.07890         1.38865
O         -3.95971        -5.32297        -0.84626
H         -4.28559        -4.52693        -1.32486
H         12.04795        -1.01737         0.89649
H         12.21533         1.33890         0.78215
H         10.40887         3.29971         1.33878
H          9.51160         5.77694         0.44290
H          8.06277         7.97197         0.50159
H          6.25396         9.91979         0.60373
H          4.11342        10.63152         1.57659
H          1.77069         8.79422         3.64317
H         -0.64872         9.43769         2.98544
H         -2.67425        10.74012         1.17090
H         -4.93252        10.95517         0.40799
H         -7.04201        10.02583        -0.39787
H         -7.73862         7.71627         0.44622
H         -9.57569         5.70635         0.05234
H        -10.76929         3.67562         0.48530
H        -11.96820         1.48500         1.22046
H        -12.05601        -0.93862         1.01091
H        -10.84272        -3.11923         1.39481
H         -9.47417        -5.48438         1.13078
H         -8.20607        -7.40400         0.60228
H         -7.10042        -9.41663         0.00822
H         -5.14427       -10.52576        -0.87001
H         -2.49892       -10.48929        -1.31526
H          0.10387       -11.20131        -0.00356
H          2.63644       -11.12053         0.40675
H          5.20735       -11.15712         0.18585
H          7.30756        -9.96531         0.48484
H          8.59454        -7.53512         0.66908
H          9.79333        -5.54393        -0.46078
H         11.11734        -3.03383        -0.24431
