         324
 CSIRO Nanostructure Databank - Neutral Graphene Oxide Data Set
C          1.26766         3.41310         1.45744
C          0.09427         4.09284         1.71835
C          1.22596         6.26300         1.51173
C          0.06757         5.50005         1.70462
C          1.05672         7.73429         1.35545
C         -0.06911         8.35890         0.77263
C          1.06881        10.54944         0.71096
C         -0.08580         9.74053         0.56089
C          1.06767        12.00051         0.47468
C         -0.13015        12.71236         0.25477
C          1.09714        14.80848        -0.01035
C         -0.11167        14.07861         0.00911
C          1.14166        16.18743        -0.48752
C          0.15383        16.65639        -1.31651
C          1.41792        18.67219        -1.79492
C          0.28676        17.90555        -1.98301
C          1.46007        20.96321        -2.01555
C          0.35269        21.73206        -2.39127
C          1.25005        23.59728        -1.14155
C          0.22297        23.03041        -1.92106
C          1.19162        25.01811        -0.80581
C          0.01180        25.77094        -0.89608
C          1.18634        27.86170        -0.41424
C         -0.00017        27.15500        -0.68226
C          1.22566        29.29086        -0.29762
C          3.64763         3.41702         0.84961
C          2.47565         4.12961         1.21442
C          3.75794         6.19750         1.10885
C          2.47595         5.56403         1.32777
C          3.98000         7.56651         1.49567
C          2.10388         8.60936         1.67860
C          3.58470        10.53260         0.93599
C          2.24887         9.91304         1.17857
C          3.55550        12.00358         0.61736
C          2.27539        12.74543         0.54428
C          3.57250        14.89706         0.26652
C          2.30585        14.14155         0.31028
C          3.59633        16.27900         0.02057
C          2.31233        17.06312        -0.09034
C          3.63763        19.12447        -0.73772
C          2.48351        18.33848        -0.90831
C          3.65794        20.59808        -0.82475
C          2.45931        21.41890        -1.12239
C          3.49860        23.45575        -0.09769
C          2.36730        22.79417        -0.76552
C          3.54549        24.92820        -0.13942
C          2.40878        25.68238        -0.42610
C          3.60814        27.83798        -0.09962
C          2.41326        27.13345        -0.29048
C          3.65962        29.26347        -0.05861
C          2.40915        29.96588        -0.13371
C          6.00984         3.35908         0.06774
C          4.84414         4.06805         0.45345
C          6.01405         6.26623         0.09042
C          4.84043         5.50451         0.54593
C          6.07874         7.74988         0.30937
C          4.96210         8.39419         1.01096
C          6.08845        10.53838         0.76912
C          4.92607         9.84419         1.08360
C          6.11021        12.01577         0.86035
C          4.79950        12.79082         0.84727
C          6.03064        14.89485         0.44036
C          4.80189        14.21529         0.49408
C          6.04350        16.30601         0.20719
C          4.82303        17.01356        -0.00115
C          6.09010        19.10938        -0.24093
C          4.85026        18.43168        -0.27825
C          6.14254        20.53551        -0.79181
C          4.84045        21.26558        -0.51386
C          6.09112        23.47407        -0.04993
C          4.82630        22.66260        -0.04139
C          6.04798        24.87762         0.48798
C          4.77030        25.62843         0.28568
C          6.16958        27.80332        -0.03001
C          4.86317        27.07255        -0.08552
C          6.14378        29.27762         0.11675
C          4.89606        29.94237         0.05931
C          8.58163         3.37223        -0.30416
C          7.26796         4.00816        -0.30146
C          8.57587         6.19312         0.14273
C          7.28880         5.54324        -0.23357
C          8.60762         7.71199         0.40562
C          7.36039         8.46362         0.38325
C          8.59346        10.54910         0.34542
C          7.35336         9.84555         0.51913
C          8.49051        11.99267        -0.06862
C          7.31147        12.75427         0.48557
C          8.51364        14.86818         0.28443
C          7.27355        14.14079         0.43072
C          8.50887        16.26065         0.36915
C          7.28625        17.01400         0.24260
C          8.54482        19.16524         0.35982
C          7.28843        18.41832         0.06189
C          8.68365        20.60548         0.01573
C          7.44816        21.30829        -0.45992
C          8.66597        23.44519         0.20585
C          7.42335        22.79128        -0.23993
C          8.66247        24.87473         0.53214
C          7.34798        25.63940         0.59266
C          8.60781        27.77648         0.42393
C          7.39339        27.08158         0.35514
C          8.60813        29.24510         0.39930
C          7.36402        29.93741         0.31057
C         10.98364         3.45508        -0.82424
C          9.76930         4.11590        -0.51523
C         11.02739         6.26797        -0.23311
C          9.81703         5.54416        -0.26532
C         11.06972         7.71142         0.02831
C          9.86950         8.43003         0.23229
C         11.06677        10.58416         0.00380
C          9.81960         9.86265         0.19440
C         11.02177        12.00932        -0.17246
C          9.78447        12.74581        -0.00700
C         10.91173        14.90173        -0.39754
C          9.74125        14.13027         0.06074
C         11.05502        16.30995         0.06896
C          9.79536        16.95867         0.54038
C         11.17856        19.11892         0.64065
C          9.81774        18.43600         0.63612
C         11.14316        20.62021         0.81678
C          9.87531        21.34175         0.53427
C         11.14087        23.50898         0.38272
C          9.88067        22.74269         0.38682
C         11.11972        24.94728         0.28588
C          9.91117        25.65083         0.37969
C         11.08110        27.83044         0.70655
C          9.84033        27.06988         0.46077
C         11.08624        29.30363         0.54134
C          9.81764        29.95046         0.45776
C         13.41747         3.49324        -1.20626
C         12.20742         4.15732        -0.88454
C         13.46753         6.24040        -0.50483
C         12.22908         5.56407        -0.56382
C         13.50034         7.60453        -0.05385
C         12.32502         8.41735         0.06581
C         13.50315        10.71468        -0.06717
C         12.31687         9.89295         0.06118
C         13.45474        12.06707        -0.46755
C         12.20925        12.71566        -0.47856
C         13.39281        14.95439        -0.84991
C         12.16428        14.15263        -0.75121
C         13.23942        16.31814        -1.00040
C         12.21940        17.12359        -0.37508
C         13.63304        19.24623        -0.01089
C         12.37980        18.45916         0.02410
C         13.64904        20.62398         0.28729
C         12.45195        21.40904         0.80409
C         13.62027        23.53116         0.12638
C         12.34043        22.82074         0.30375
C         13.66651        24.97237         0.34327
C         12.39425        25.72311         0.03670
C         13.68516        27.87377         0.64796
C         12.37293        27.09762         0.67610
C         13.56027        29.30921         0.17134
C         12.28715        29.97297         0.32650
C         15.88651         3.51694        -1.50058
C         14.66014         4.16693        -1.19342
C         15.93395         6.23308        -0.79475
C         14.68639         5.55429        -0.81843
C         15.97103         7.57144        -0.30680
C         14.80688         8.08129         0.23439
C         15.99602        10.71137        -0.32125
C         14.83291        10.23329         0.20779
C         16.02006        12.07212        -0.89119
C         14.70414        12.80260        -0.86547
C         16.02460        15.01699        -0.40409
C         14.71267        14.29573        -0.65181
C         16.19921        16.50591        -0.38336
C         15.15225        17.36283        -0.70367
C         16.12519        19.24215         0.39316
C         14.94820        18.63931        -0.14183
C         16.10689        20.66314         0.59006
C         14.89274        21.32493         0.38347
C         16.17193        23.54043         0.49911
C         14.92990        22.78775         0.21261
C         16.14798        24.93140         0.47297
C         14.87714        25.62448         0.42422
C         16.04785        27.77834        -0.38581
C         14.82287        27.06573         0.04838
C         15.86242        29.25006        -0.87375
C         14.68566        29.97330        -0.24362
C         18.37332         3.50823        -1.65776
C         17.12341         4.18683        -1.42753
C         18.41922         6.25795        -0.91104
C         17.16114         5.57052        -1.07632
C         18.48255         7.63662        -0.54741
C         17.20027         8.38231        -0.50747
C         18.51434        10.58358        -0.30626
C         17.22417         9.88232        -0.47664
C         18.54501        11.96791        -0.31609
C         17.34544        12.78278        -0.71594
C         18.46757        14.86786         0.33534
C         17.32734        14.25560        -0.44071
C         18.53085        16.32316         0.48430
C         17.34606        17.10201         0.22530
C         18.45073        19.06014         1.33055
C         17.31523        18.48447         0.52215
C         18.49003        20.60090         1.32929
C         17.31870        21.39145         0.87651
C         18.62833        23.52508         0.94536
C         17.37684        22.78916         0.78032
C         18.65176        24.95873         0.92153
C         17.38791        25.75379         0.68587
C         18.46058        28.34528         0.30432
C         17.33530        27.25329         0.25401
C         18.36540        29.41287        -0.76486
C         17.16451        29.98136        -1.03492
C         19.56827         4.15495        -1.49988
C         20.85725         6.21768        -0.93503
C         19.62929         5.53976        -1.11368
C         20.89249         7.56102        -0.58294
C         19.70516         8.30967        -0.41148
C         20.98877        10.53928        -0.30986
C         19.74451         9.77025         0.05565
C         20.99695        11.90572        -0.29960
C         19.79344        12.66384        -0.13046
C         21.00783        14.84896         0.51616
C         19.78457        14.04174         0.37657
C         20.97758        16.18459         0.75368
C         19.75563        16.97371         0.80183
C         20.98025        19.13866         1.05783
C         19.77379        18.37961         1.01388
C         21.02514        20.49988         1.20061
C         19.81028        21.32004         1.36947
C         21.05404        23.45963         1.31220
C         19.83525        22.79014         1.13347
C         21.07313        24.84228         1.40351
C         19.88507        25.56746         1.23877
C         20.94362        28.29471        -0.19164
C         19.85143        27.80207         0.44344
C         20.79660        29.37920        -1.13536
C         19.58001        29.94185        -1.35950
O         11.71248        27.25888         1.95532
O          3.62103        11.03892        -0.48114
O         17.68175        13.75802        -1.76443
O          8.02175        25.20711         1.82814
O          5.64025        27.28862        -1.32662
O          5.47342        12.50127         2.10939
O         14.25381        16.96879        -1.68884
O          5.73259         7.20845        -1.02508
O         19.03883        21.05891         2.61773
O         17.11468         9.16517        -1.78845
O          8.97638        18.90995         1.73634
O         18.85517        14.13636         1.53023
O          3.99803        22.84488         1.14016
O          1.58619        19.74488        -2.67814
O         15.28103        26.97764        -1.36013
O          7.22851         4.92761        -1.51032
O          6.73752        23.49961        -1.36280
O         15.19592        14.57924         0.73692
O         10.73824        16.36350         1.49907
O         20.01348        26.92611         1.52313
O         15.28683        12.32911        -2.12747
O         14.92453         9.16580         1.10097
O         11.20208        14.61012        -1.79660
O          5.20836        25.19219         1.62912
O         11.28746        19.70849         1.97982
O          8.59314         6.70197         1.51174
O          8.48678        20.90190        -1.42805
O         14.34502        23.13897        -1.11476
O         17.09025        26.82096         1.63824
O          3.13454         8.09495         2.47293
O         19.74427         9.67019         1.53068
H         19.81729        10.58133         1.88828
O         14.13616        27.99262         2.02769
H         13.32544        27.99419         2.59125
O         15.41293        29.22681        -2.27190
H         14.94156        28.36718        -2.40530
O         12.80663        21.66237         2.20858
H         12.45212        20.89944         2.72788
O         18.14900        18.66252         2.70642
H         18.59632        19.32303         3.28680
O         12.44039        26.00066        -1.40430
H         12.81549        25.21314        -1.85519
O         18.21277        29.07728         1.53609
H         18.09601        28.40568         2.24695
O          2.01690        17.55371         1.27018
H          1.90450        16.76786         1.84651
O          6.13675        20.35687        -2.23865
H          7.07750        20.36406        -2.53412
O          8.20312        11.89579        -1.52734
H          8.44700        12.75314        -1.93902
H          1.27762         2.31482         1.40876
H         -0.83698         3.53812         1.89884
H         -0.89348         6.01268         1.85201
H         -0.95042         7.76415         0.49324
H         -1.00911        10.18987         0.17019
H         -1.09368        12.18519         0.24828
H         -1.06219        14.59446        -0.18397
H         -0.70865        16.02417        -1.56896
H         -0.45132        18.20593        -2.73689
H         -0.38443        21.30618        -3.08359
H         -0.64107        23.63344        -2.22791
H         -0.93827        25.27352        -1.13515
H         -0.94865        27.70507        -0.76511
H          0.28053        29.84886        -0.37053
H          3.59923         2.31840         0.80814
H          2.41403        31.06405        -0.07509
H          6.01912         2.26631         0.19642
H          4.88625        31.04148         0.11751
H          8.64506         2.27537        -0.25167
H          7.37056        31.03524         0.38968
H         10.97360         2.37219        -1.01705
H          9.79394        31.04785         0.37348
H         13.38612         2.42284        -1.46008
H         12.25288        31.05637         0.12899
H         15.86938         2.45171        -1.77668
H         14.60602        31.04681        -0.48195
H         18.35176         2.44716        -1.94650
H         17.12845        30.84081        -1.72333
H         20.51266         3.61623        -1.66704
H         21.79910         5.66806        -1.07713
H         21.87106         8.04076        -0.44418
H         21.94427        10.00608        -0.41141
H         21.95341        12.43872        -0.40823
H         21.98077        14.34569         0.41878
H         21.93786        16.70275         0.88379
H         21.93716        18.61746         0.90886
H         22.00324        20.99692         1.14730
H         21.98415        22.89841         1.46623
H         21.99978        25.38047         1.63818
H         21.94409        27.90794         0.04326
H         21.69350        29.76878        -1.63567
H         19.47548        30.78055        -2.06280
