         204
 CSIRO Nanostructure Databank - Neutral Graphene Oxide Data Set
C        -10.95422         0.69170         1.16914
C         -9.77553         1.47093         0.86829
C         -8.45940         0.79925         0.96418
C         -7.28888         1.46716         0.38479
C         -5.92086         0.81906         0.53558
C         -4.87901         1.40158        -0.39095
C         -3.71168         0.73664        -0.69245
C         -2.46387         1.44617        -0.89191
C         -1.23170         0.71795        -0.89946
C          0.00768         1.42985        -0.84445
C          1.24889         0.71932        -0.84126
C          2.48359         1.44338        -0.77833
C          3.72673         0.73515        -0.68544
C          4.96244         1.45942        -0.51419
C          6.17378         0.74078        -0.27709
C          7.39594         1.45748        -0.10448
C          8.59729         0.74771         0.21427
C          9.80488         1.48977         0.53777
C         10.95368         0.74258         1.01048
C         -9.82580         2.80984         0.56759
C         -8.63955         3.56632         0.22475
C         -7.37663         2.83466         0.05724
C         -6.22640         3.53543        -0.36547
C         -5.00649         2.81662        -0.69445
C         -3.68210         3.61483        -0.90014
C         -2.43762         2.85942        -0.79420
C         -1.21408         3.57237        -0.66241
C          0.01330         2.85590        -0.72251
C          1.25461         3.57412        -0.68264
C          2.47276         2.86401        -0.75309
C          3.75628         3.61979        -0.97593
C          4.98361         2.86753        -0.54483
C          6.19625         3.58246        -0.34703
C          7.40613         2.87201        -0.18222
C          8.72165         3.60162        -0.26031
C          9.84846         2.85279         0.38809
C         -8.68783         4.93577         0.09393
C         -7.52748         5.73606        -0.33457
C         -6.22999         4.98487        -0.60075
C         -4.93718         5.68835        -0.39659
C         -3.72292         5.03622        -0.51270
C         -2.45391         5.71164        -0.32878
C         -1.22295         4.99891        -0.49706
C          0.01511         5.70563        -0.42496
C          1.24705         5.00542        -0.53916
C          2.49078         5.72133        -0.40638
C          3.72098         5.04275        -0.48348
C          4.94715         5.73038        -0.25030
C          6.18346         5.02426        -0.23364
C          7.40768         5.72452         0.07061
C          8.61582         5.03591         0.15457
C         -7.45159         7.17903        -0.01560
C         -6.25508         7.82927         0.11446
C         -4.98848         7.05456         0.14249
C         -3.67309         7.79804         0.28516
C         -2.43434         7.09919        -0.08303
C         -1.21680         7.82606        -0.08033
C          0.01158         7.12833        -0.22650
C          1.24015         7.83974        -0.10410
C          2.47432         7.13704        -0.16258
C          3.69765         7.84071         0.02370
C          4.92814         7.13824         0.01098
C          6.15873         7.83954         0.26302
C          7.35848         7.13884         0.30430
C         -6.15875         9.25754         0.33887
C         -4.96893         9.92928         0.40017
C         -3.68707         9.27425         0.28920
C         -2.48941         9.94978         0.21167
C         -1.22866         9.25591         0.10751
C         -0.01392         9.94277         0.17840
C          1.22671         9.25796         0.11045
C          2.45924         9.94444         0.27254
C          3.67566         9.26225         0.25011
C          4.92744         9.94520         0.46411
C          6.10972         9.26593         0.48041
C        -10.92484        -0.66591         1.32160
C         -9.70898        -1.43763         1.19290
C         -8.42530        -0.69734         1.21870
C         -7.17000        -1.46561         0.91520
C         -5.91465        -0.71222         0.52812
C         -4.87688        -1.46064        -0.20611
C         -3.76412        -0.74734        -0.92887
C         -2.44325        -1.45314        -0.79080
C         -1.22801        -0.72447        -0.88802
C          0.01103        -1.43847        -0.93676
C          1.26737        -0.71088        -0.91896
C          2.50417        -1.39029        -0.86881
C          3.73627        -0.68823        -0.68247
C          4.96166        -1.40940        -0.50581
C          6.18429        -0.68937        -0.28360
C          7.40250        -1.37257        -0.04971
C          8.58457        -0.66124         0.26887
C          9.77473        -1.38180         0.70042
C         10.93836        -0.61837         1.07477
C         -9.71753        -2.80032         1.01033
C         -8.51851        -3.55781         0.70832
C         -7.28184        -2.88332         0.53720
C         -6.13264        -3.57114         0.08529
C         -4.92040        -2.83670        -0.26743
C         -3.71458        -3.58704        -0.61764
C         -2.46103        -2.85452        -0.72171
C         -1.23327        -3.57145        -0.80383
C         -0.01550        -2.85320        -0.93208
C          1.23068        -3.61713        -1.07850
C          2.55616        -2.84971        -1.02986
C          3.75474        -3.58060        -0.59959
C          4.96132        -2.85026        -0.41449
C          6.15815        -3.55800        -0.13933
C          7.48393        -2.85762        -0.26471
C          8.59698        -3.53223         0.50305
C          9.74727        -2.76285         0.84387
C         -8.54721        -4.95509         0.56277
C         -7.39398        -5.66462         0.16719
C         -6.20580        -4.96124        -0.14224
C         -5.09074        -5.64190        -0.90426
C         -3.73930        -4.97065        -0.69235
C         -2.50348        -5.73461        -0.74403
C         -1.23890        -5.00435        -0.76226
C         -0.01602        -5.69270        -0.63755
C          1.23318        -5.03698        -0.70351
C          2.46864        -5.71418        -0.48270
C          3.71423        -4.98381        -0.42510
C          4.91276        -5.67986        -0.06654
C          6.13730        -4.95449         0.06257
C          7.33767        -5.64929         0.46728
C          8.52856        -4.89531         0.72952
C         -7.39273        -7.11392         0.16515
C         -6.27049        -7.83589        -0.14853
C         -5.07821        -7.16091        -0.72187
C         -3.77230        -7.89613        -0.68807
C         -2.51495        -7.12431        -0.71768
C         -1.24324        -7.92253        -0.89347
C         -0.05315        -7.14514        -0.38331
C          1.22292        -7.87130        -0.18323
C          2.48981        -7.11650        -0.23572
C          3.67259        -7.80983         0.04580
C          4.89855        -7.08665         0.16100
C          6.09502        -7.76183         0.55148
C          7.28998        -7.03319         0.70077
C         -6.18285        -9.25516         0.10892
C         -4.99279        -9.92386         0.13248
C         -3.73091        -9.27907        -0.14631
C         -2.53103        -9.91902         0.04783
C         -1.25701        -9.31201        -0.26828
C         -0.07897        -9.97432        -0.07415
C          1.24942        -9.36004        -0.46463
C          2.47716        -9.97906         0.16031
C          3.63406        -9.24791         0.31215
C          4.86941        -9.87712         0.73170
C          6.03491        -9.17487         0.83056
O          9.06122         3.64785        -1.71582
H          8.28534         4.03615        -2.17547
O         -4.57918        -7.82293        -1.94328
O         -4.50630         3.21450        -2.02312
O         -4.11197        -0.84986        -2.36180
H         -3.41585        -0.38139        -2.87014
O          0.38198        -7.50702         0.97110
O         -6.09840        -1.24589         1.89226
O          1.98848        -3.32267        -2.30179
O         -4.32748         7.18597         1.45632
O         -7.07454         5.44113        -1.71984
O         -8.24935         0.22593         2.33046
O          3.88183         3.73130        -2.45739
H          3.07862         4.19525        -2.77799
O         -1.06322        -8.07785        -2.32976
H         -1.89885        -8.43187        -2.70076
O          1.40813        -9.50751        -1.90991
H          1.35743       -10.46157        -2.12532
O         -5.47124         1.24161         1.86274
H         -5.93549         0.64561         2.50061
O          7.86018        -3.01271        -1.69123
H          7.89998        -3.97593        -1.87438
O         -5.42215        -5.39973        -2.30679
H         -5.02246        -6.14411        -2.81501
H         11.82824        -1.16492         1.42123
H         11.85782         1.30169         1.29322
H         10.77179         3.40247         0.62730
H          9.54176         5.59218         0.36570
H          8.29686         7.67272         0.51624
H          7.05473         9.79967         0.65954
H          4.90894        11.03237         0.63068
H          2.44811        11.03119         0.44474
H         -0.01503        11.03302         0.32714
H         -2.47882        11.04998         0.24919
H         -4.97520        11.02310         0.52116
H         -7.09976         9.82310         0.41380
H         -8.39426         7.73936         0.08795
H         -9.62111         5.46685         0.33863
H        -10.79463         3.33248         0.56719
H        -11.91756         1.22086         1.22006
H        -11.86573        -1.21456         1.47735
H        -10.67727        -3.33906         1.02363
H         -9.47933        -5.50457         0.75987
H         -8.28275        -7.63352         0.55195
H         -7.10898        -9.78419         0.37932
H         -4.97331       -10.98830         0.41046
H         -2.52807       -10.94304         0.45421
H         -0.09186       -10.99717         0.33776
H          2.49463       -11.06557         0.34423
H          4.85420       -10.95455         0.95389
H          6.96007        -9.68407         1.13931
H          8.20171        -7.55460         1.02923
H          9.38880        -5.41535         1.17903
H         10.62224        -3.27986         1.26800
