         324
 CSIRO Nanostructure Databank - Neutral Graphene Oxide Data Set
C          1.30182         3.57151         1.65449
C          0.29417         4.36720         2.17779
C          1.46682         6.38608         1.47282
C          0.40848         5.76740         2.15111
C          1.78671         7.87329         1.56978
C          0.64332         8.69075         2.13167
C          1.31223        10.66399         0.84812
C          0.38583         9.94693         1.71276
C          1.23529        12.07130         0.65695
C          0.06018        12.84846         1.01768
C          1.00844        14.92896         0.08341
C         -0.05298        14.17896         0.77660
C          1.05742        16.41696         0.06647
C         -0.12778        17.16184         0.04527
C          1.10065        19.18993        -0.50630
C         -0.10871        18.52168        -0.27568
C          1.13197        20.56708        -1.05121
C         -0.05350        21.41900        -1.17228
C          1.29405        23.47111        -1.39743
C          0.04752        22.74401        -1.48207
C          1.37812        24.90785        -1.69095
C          0.32365        25.59800        -2.35209
C          1.65398        27.64014        -2.50606
C          0.45161        26.92214        -2.73220
C          1.80854        29.01568        -2.87727
C          3.60530         3.42832         0.76377
C          2.40707         4.17041         0.99803
C          3.43120         6.18168        -0.07325
C          2.39204         5.57962         0.77980
C          3.32443         7.63952        -0.54848
C          2.17042         8.43507         0.18640
C          3.53117        10.61593        -0.17931
C          2.39535         9.94014         0.28794
C          3.57687        12.03600        -0.11089
C          2.37839        12.73872         0.16798
C          3.56804        14.93922        -0.11760
C          2.30858        14.18164        -0.12982
C          3.55410        16.35634        -0.06342
C          2.30315        17.08463        -0.08943
C          3.58054        19.21673        -0.16602
C          2.32969        18.49750        -0.29158
C          3.62961        20.62150        -0.32956
C          2.49001        21.32011        -0.95686
C          3.55795        23.50700        -0.38996
C          2.42338        22.78304        -0.95556
C          3.65365        25.01472        -0.66111
C          2.57275        25.62135        -1.44763
C          3.97046        27.66574        -1.64249
C          2.73689        26.96948        -1.87224
C          4.09473        29.03680        -2.00604
C          2.97461        29.69098        -2.62475
C          6.04331         3.38743         0.47900
C          4.81150         4.07184         0.47204
C          5.99505         6.28562        -0.07256
C          4.76930         5.45750        -0.07188
C          6.00907         7.65202        -0.32902
C          4.71728         8.36567        -0.65154
C          6.04263        10.62646        -0.68826
C          4.73260         9.87642        -0.65037
C          6.05779        12.09325        -0.49621
C          4.80435        12.78435        -0.33365
C          5.99067        14.95662        -0.51546
C          4.76947        14.19081        -0.22067
C          6.04692        16.33428         0.08677
C          4.77131        17.09267         0.11685
C          5.96554        19.23107         0.68516
C          4.76687        18.49091         0.20264
C          5.89927        20.71576         0.67463
C          4.78246        21.37325         0.05855
C          5.92328        23.55083         0.31860
C          4.78632        22.79241        -0.03673
C          6.06799        24.94518        -0.03244
C          4.97887        25.63421        -0.63222
C          6.31913        27.67310        -0.90945
C          5.10415        26.98639        -1.08671
C          6.41405        29.06830        -1.17682
C          5.29968        29.72659        -1.73747
C          8.49025         3.45374         0.30052
C          7.25656         4.09670         0.35784
C          8.49731         6.34448         0.44714
C          7.19393         5.58183         0.41534
C          8.47444         7.76332         0.05592
C          7.27025         8.39603        -0.24682
C          8.58419        10.61778        -0.31291
C          7.33190         9.85369        -0.55884
C          8.56767        12.06910        -0.48462
C          7.29063        12.75338        -0.57380
C          8.56749        15.00626        -0.79625
C          7.27812        14.21581        -0.75698
C          8.54311        16.50033        -0.52930
C          7.35074        17.06709         0.19461
C          8.64709        19.23232         0.66999
C          7.34477        18.50778         0.66566
C          8.83004        20.38465         1.38583
C          6.86151        21.50699         1.29822
C          8.13106        23.66560         1.34468
C          6.97873        22.90916         1.02746
C          8.42200        24.92199         0.76200
C          7.33712        25.57532         0.11222
C          8.52504        27.76811         0.24594
C          7.56587        26.91103        -0.54606
C          8.65494        29.19455        -0.11970
C          7.61140        29.79266        -0.82190
C         10.94428         3.47504         0.02337
C          9.73276         4.16507         0.23053
C         10.96820         6.29977         0.27462
C          9.75116         5.58828         0.30619
C         10.93917         7.75277         0.32481
C          9.74767         8.46114         0.10751
C         11.04076        10.59858        -0.12830
C          9.74686         9.90302        -0.06804
C         11.04839        12.08357        -0.34356
C          9.76691        12.81609        -0.45242
C         11.02860        14.96603        -0.41925
C          9.83904        14.26400        -0.57773
C         11.11124        16.44165        -0.48317
C          9.84525        17.25390        -0.48888
C         11.13403        19.08259         0.66084
C          9.85020        18.74422        -0.14003
C         11.20979        20.57031         0.82411
C         10.04968        21.19091         1.28587
C         11.12326        23.40789         1.03848
C         10.08061        22.58945         1.51178
C         11.00222        24.86084         0.89522
C          9.76089        25.52706         0.82492
C         10.97150        27.77427         0.74972
C          9.74776        27.01038         0.79903
C         10.93962        29.19402         0.78830
C          9.78904        29.89162         0.38554
C         13.38657         3.46323        -0.36131
C         12.17701         4.16071        -0.01364
C         13.48397         6.22976         0.40819
C         12.18732         5.57056         0.20529
C         13.53445         7.71836         0.56976
C         12.21735         8.45763         0.60786
C         13.56754        10.66338         0.44302
C         12.24389         9.95524         0.48861
C         13.57993        12.09203         0.03030
C         12.28481        12.80493         0.08026
C         13.59504        14.95613        -0.28035
C         12.29195        14.29631        -0.03248
C         13.61103        16.40367        -0.32696
C         12.40006        17.10951        -0.15471
C         13.63568        19.18807         0.22246
C         12.41210        18.47715         0.14180
C         13.63134        20.63385         0.39837
C         12.39296        21.31227         0.63520
C         13.53986        23.48701         0.51770
C         12.34484        22.73863         0.70470
C         13.45997        24.92241         0.54292
C         12.24762        25.59058         0.66172
C         13.53051        27.92156         0.49239
C         12.19685        27.06563         0.27831
C         13.34332        29.18328         1.29957
C         12.15640        29.84911         1.25282
C         15.79792         3.47726        -0.94596
C         14.61836         4.10111        -0.46323
C         15.96590         6.25770        -0.24973
C         14.74146         5.48284         0.04624
C         15.93067         7.70582        -0.15606
C         14.79577         8.43028         0.20787
C         15.99052        10.59559         0.05082
C         14.82559         9.88499         0.26343
C         16.02877        12.07514         0.18174
C         14.75264        12.79464        -0.07131
C         16.05711        14.89590        -0.63590
C         14.76882        14.22731        -0.28766
C         16.08249        16.39993        -0.67985
C         14.83329        17.11200        -0.31239
C         16.13194        19.17040         0.18894
C         14.84623        18.48353        -0.01700
C         16.09909        20.67405         0.34344
C         14.80919        21.39050         0.29730
C         16.02018        23.57225         0.35771
C         14.78058        22.81529         0.33551
C         16.01282        24.93681         0.54384
C         14.73402        25.70100         0.27046
C         15.92837        27.68745         1.45536
C         14.66741        27.03566         0.97749
C         15.88950        29.16727         1.57488
C         14.56444        29.80070         1.94910
C         18.19462         3.50967        -1.48473
C         17.02316         4.16231        -0.99796
C         18.44570         6.23909        -0.59328
C         17.09363         5.57210        -0.65873
C         18.40135         7.72659        -0.83207
C         17.12088         8.41648        -0.67047
C         18.49249        10.57877        -0.53548
C         17.17080         9.93883        -0.53314
C         18.60086        11.97255        -0.07489
C         17.34087        12.78077         0.07882
C         18.65265        14.94063        -0.39810
C         17.36774        14.17798        -0.48391
C         18.66483        16.35475        -0.39804
C         17.40783        17.12103        -0.56018
C         18.62562        19.24063        -0.03293
C         17.40686        18.52983        -0.14384
C         18.62869        20.67371         0.08131
C         17.34568        21.39453        -0.01133
C         18.57649        23.59936         0.31514
C         17.30724        22.89275         0.08276
C         18.53521        24.98826         0.59531
C         17.24968        25.67373         0.74743
C         18.45962        27.73651         1.38233
C         17.21053        26.98451         1.20303
C         18.35814        29.28986         1.43736
C         17.01176        29.90855         1.44788
C         19.38822         4.19358        -1.70026
C         20.68933         6.30548        -1.68930
C         19.52095         5.55779        -1.39521
C         20.74377         7.67172        -1.48889
C         19.56877         8.42802        -1.12141
C         20.82438        10.64029        -1.25442
C         19.61775         9.88621        -0.96801
C         20.93198        11.98011        -1.04605
C         19.89404        12.72659        -0.32200
C         21.07299        14.94307        -0.21729
C         19.87011        14.22574        -0.33014
C         21.07856        16.33209        -0.14595
C         19.88037        17.07408        -0.23176
C         21.05576        19.29982        -0.10906
C         19.87313        18.53588        -0.13750
C         21.03993        20.68674         0.01191
C         19.82473        21.41573         0.09625
C         20.99381        23.62718         0.37453
C         19.79842        22.88318         0.23962
C         20.97051        24.99952         0.57001
C         19.75519        25.70903         0.69771
C         20.82561        27.96763         0.74485
C         19.72941        27.14630         0.92922
C         20.70741        29.39024         0.72746
C         19.51668        30.02588         0.94955
O         19.57235        12.17379         1.00276
O         17.23538        22.19883        -1.23391
O         16.22027        19.83979         1.53155
O         18.58127        28.47835         2.63454
O         12.89731         8.06137         1.84265
O         16.81994         9.29393        -1.81353
O          2.03738        20.69244        -2.19318
O         10.58072        17.03843        -1.73408
O         13.90186        28.50496        -0.73006
O          8.65919        27.53805         1.65205
O          3.87787         5.40680        -1.22619
O          6.56711        18.65325         1.87927
O         12.15873        13.62533         1.28417
O         14.97264        27.00328         2.38951
O          1.38101        14.43111        -1.25212
O          7.79756        20.92689         2.16496
O          7.73198         6.09464         1.68587
O          8.41432        15.98037        -1.87835
O         11.32666        11.16693        -1.46076
O         16.71922        16.92974        -1.87993
O          9.04180        23.14985         2.26787
O          6.80522        10.22879        -1.87642
O          6.42019        14.67886        -1.87178
O          6.87490        16.22376         1.30483
O         14.30661         5.58246         1.44660
O         16.71292        12.62249         1.38546
O          4.65800         9.12403        -1.90552
O         16.71107        14.26388        -1.79283
O         12.78218        10.56557         1.69336
O          3.19104        24.49577         0.63507
O          2.85996         7.49273        -1.91075
H          3.30913         8.18226        -2.45801
O         18.85361         6.08445         0.82497
H         19.76206         6.44708         0.90484
O         14.78683        25.98733        -1.15336
H         14.74167        25.13758        -1.63907
O          2.94841         8.00053         2.43351
H          2.69793         7.70496         3.33369
O         14.41668        29.63329         3.37521
H         14.53256        28.67294         3.56056
O          8.27097        26.64970        -1.81045
H          7.65030        26.19116        -2.41497
O          0.96516         8.27211        -0.58634
H          1.24748         7.96558        -1.48639
O         11.95326        27.08975        -1.15366
H         12.70197        27.67277        -1.51097
O         10.92727        18.47791         1.97099
H         11.68481        18.71540         2.54596
O          9.84233        19.47927        -1.37629
H         10.25110        18.89982        -2.06214
H          1.27565         2.48014         1.78241
H         -0.56370         3.90567         2.68610
H         -0.35700         6.36540         2.66272
H          0.01048         8.25117         2.91680
H         -0.46026        10.49445         2.15266
H         -0.77194        12.33371         1.51811
H         -0.93868        14.72369         1.13598
H         -1.09400        16.65707         0.18314
H         -1.06295        19.05235        -0.39600
H         -1.04939        20.97107        -1.04460
H         -0.87827        23.31493        -1.64102
H         -0.61653        25.07329        -2.57057
H         -0.38819        27.43034        -3.22788
H          0.96573        29.53001        -3.36157
H          3.62120         2.36063         1.03006
H          3.07257        30.74980        -2.90511
H          6.06155         2.29770         0.62855
H          5.36868        30.79911        -1.97336
H          8.51632         2.35415         0.27793
H          7.65736        30.86905        -1.04583
H         10.92797         2.38353        -0.10909
H          9.82177        30.98887         0.32031
H         13.30731         2.40037        -0.63490
H         12.06805        30.86902         1.65802
H         15.75487         2.42679        -1.27080
H         14.59693        30.90182         1.74969
H         18.12571         2.44559        -1.75305
H         16.95323        31.00817         1.47744
H         20.23859         3.66411        -2.15608
H         21.56079         5.78479        -2.11409
H         21.67973         8.19930        -1.71334
H         21.65107        10.12799        -1.76564
H         21.80609        12.52548        -1.43111
H         22.02405        14.39607        -0.15463
H         22.03920        16.84818        -0.01731
H         22.03099        18.80109        -0.19467
H         22.00215        21.21560         0.01796
H         21.96797        23.12342         0.32106
H         21.92457        25.53628         0.66080
H         21.79284        27.53434         0.45421
H         21.58261        29.97537         0.41075
H         19.40476        31.09683         0.72598
