         314
 CSIRO Nanostructure Databank - Neutral Graphene Oxide Data Set
C         30.35406        56.80398         1.07837
C         30.07237        58.04870         1.61026
C         29.05238        58.99975         1.30151
C         30.45585        61.09331         1.58203
C         29.24354        60.37403         1.44950
C         32.97402        52.67123         0.80471
C         32.94727        54.07967         0.93908
C         31.72338        54.78778         1.01303
C         32.90805        56.92499         1.21747
C         31.66113        56.18060         1.18025
C         32.95364        58.36804         1.24150
C         31.92814        59.12609         1.75828
C         32.93677        61.26602         1.22599
C         31.75465        60.53856         1.53134
C         35.47270        48.43964         0.23382
C         35.46262        49.85601         0.31145
C         34.23447        50.56492         0.47790
C         35.41466        52.72691         0.56295
C         34.18534        51.97420         0.59928
C         35.41063        54.08559         0.82458
C         34.18167        54.81797         0.97335
C         35.38491        57.01790         1.02347
C         34.14487        56.23458         1.05255
C         35.39631        58.38209         0.91947
C         34.11144        59.11107         0.61353
C         35.35388        61.29000         0.80263
C         34.14378        60.59398         0.95389
C         37.77972        44.22741        -0.89791
C         37.78918        45.63497        -0.65391
C         36.64137        46.31693        -0.25611
C         37.87311        48.45308        -0.27470
C         36.64933        47.73231        -0.08069
C         37.90185        49.86761        -0.06255
C         36.69353        50.56560         0.19796
C         37.94405        52.75024         0.38235
C         36.65618        52.06186         0.01497
C         37.96757        54.10690         0.62846
C         36.69604        54.79668         0.97330
C         37.89512        56.99290         0.62372
C         36.67615        56.28439         1.11218
C         37.87616        58.48363         0.57325
C         36.66547        59.17441         1.15421
C         37.80758        61.29887         0.51518
C         36.61118        60.62910         0.73358
C         39.60876        39.75769        -0.92591
C         39.61511        41.03796        -1.51372
C         38.70705        42.05865        -1.22076
C         40.20610        44.20241        -1.42535
C         38.88715        43.47565        -1.28920
C         40.10469        45.70457        -1.49530
C         39.00409        46.36884        -0.91319
C         40.25833        48.51394        -0.96514
C         39.04910        47.78277        -0.72201
C         40.32598        49.91693        -0.60588
C         39.14717        50.55860        -0.14459
C         40.42174        52.70679         0.01267
C         39.20848        51.93408         0.46590
C         40.44878        54.17132         0.26741
C         39.19384        54.86994         0.64325
C         40.36679        57.05464         0.46524
C         39.18754        56.27940         0.61968
C         40.34802        58.48207         0.51986
C         39.15462        59.20979         0.59927
C         40.28063        61.37960         0.39407
C         39.10392        60.65144         0.55181
C         42.26142        36.26672         1.27909
C         42.28323        37.42917         0.53351
C         41.01069        37.94329         0.07266
C         42.82098        39.97587        -1.26625
C         40.77191        38.93959        -0.85934
C         42.83676        41.36603        -1.43861
C         41.68189        42.04785        -1.85516
C         42.86102        44.20673        -1.88962
C         41.54712        43.51914        -1.64939
C         43.01694        45.48164        -2.37707
C         41.11156        46.54178        -2.01352
C         42.65141        48.55868        -1.91791
C         41.34568        47.86861        -1.59803
C         42.69572        50.02779        -1.51392
C         41.56023        50.59928        -0.75894
C         42.98310        52.70113        -0.15770
C         41.69446        51.92942        -0.13011
C         43.09839        54.16936         0.29483
C         41.74214        54.87378         0.53161
C         42.89690        57.13091         0.14965
C         41.67868        56.37202         0.51373
C         42.88843        58.53218         0.27278
C         41.63146        59.20656         0.65976
C         42.83530        61.42597         0.17719
C         41.59207        60.75922         0.56420
C         44.39993        33.96105         3.33611
C         43.30633        34.48216         2.64187
C         44.61651        36.44506         2.02567
C         43.39951        35.73013         1.97955
C         44.72222        37.76336         1.37128
C         43.54641        38.24715         0.54442
C         45.22542        39.95386        -0.48647
C         43.88793        39.26746        -0.51855
C         45.34728        41.36140        -1.12337
C         44.01790        42.14350        -0.90070
C         45.40994        44.22340        -1.62874
C         44.09919        43.46275        -1.63677
C         45.34036        45.70212        -1.71190
C         44.15383        46.31941        -2.10179
C         45.33751        48.57335        -2.02461
C         44.01399        47.81184        -2.16753
C         45.33227        50.07732        -1.78695
C         44.03252        50.79692        -1.51545
C         45.32201        52.85936        -0.96075
C         44.13595        52.11855        -0.85653
C         45.32468        54.28891        -0.76645
C         43.98350        54.98201        -0.65719
C         45.25661        57.17814        -0.37358
C         44.06813        56.44743        -0.24136
C         45.26841        58.58710        -0.23746
C         44.06650        59.28016         0.04287
C         45.27047        61.43847        -0.14494
C         44.04298        60.73999         0.05229
C         45.60171        34.66118         3.38925
C         46.94838        36.64534         2.79439
C         45.73316        35.91231         2.73017
C         47.15982        37.83556         2.05845
C         46.08503        38.36245         1.21624
C         47.58588        40.17104         0.37820
C         46.26951        39.49995         0.47280
C         47.64048        41.60186        -0.00211
C         46.51096        42.19948        -0.59615
C         47.74804        44.30105        -0.79772
C         46.56210        43.56549        -0.95353
C         47.80288        45.67507        -1.35051
C         46.55250        46.45224        -1.50418
C         47.82936        48.56463        -1.46540
C         46.58687        47.83309        -1.66108
C         47.78101        50.00374        -1.29770
C         46.59404        50.73150        -1.32810
C         47.75928        52.90563        -1.01694
C         46.57227        52.16610        -1.13158
C         47.76302        54.32137        -0.88336
C         46.50902        55.00106        -0.77151
C         47.68701        57.18699        -1.11871
C         46.57643        56.45406        -0.36919
C         47.67240        58.66665        -0.79136
C         46.51362        59.32294        -0.43379
C         47.70572        61.50672        -0.48890
C         46.49665        60.77941        -0.34718
C         48.37172        38.52516         2.17805
C         49.80898        40.55823         1.62034
C         48.71493        39.64413         1.31973
C         49.93436        41.78824         0.98099
C         48.81990        42.35457         0.22527
C         50.13096        44.45645        -0.10338
C         48.89060        43.70222        -0.21864
C         50.24722        45.73145        -0.61713
C         49.11437        46.42313        -1.27825
C         50.30855        48.62226        -1.12431
C         49.05846        47.90097        -1.26734
C         50.33474        49.99545        -1.10335
C         49.04347        50.69163        -0.94852
C         50.28110        52.95853        -1.00771
C         49.02398        52.18372        -0.84855
C         50.23219        54.37703        -0.61310
C         48.98556        55.05790        -0.72739
C         50.18698        57.18099        -0.64254
C         48.99564        56.48899        -0.78454
C         50.23916        58.63673        -0.91892
C         48.89567        59.42378        -1.03350
C         50.17866        61.53051        -0.76112
C         48.93789        60.86784        -0.75299
C         51.11904        42.56273         1.13901
C         52.49278        44.53491         0.68055
C         51.26970        43.83450         0.56844
C         52.67287        45.82003         0.12612
C         51.55313        46.40963        -0.63670
C         52.79041        48.64683        -0.52983
C         51.60187        47.89152        -0.98485
C         52.81981        50.04734        -0.62994
C         51.65870        50.72849        -1.32996
C         52.75832        52.97119        -0.53330
C         51.59656        52.24972        -1.10320
C         52.65210        54.29052        -0.12762
C         51.41947        55.04631        -0.30901
C         52.54427        57.21465         0.06315
C         51.39877        56.49146        -0.26001
C         52.53170        58.69478         0.04627
C         51.39409        59.41344        -0.52157
C         52.66491        61.54402        -0.55154
C         51.42032        60.83019        -0.64349
C         53.85217        46.55110         0.28384
C         55.12294        48.66334         0.21270
C         53.93643        47.94242        -0.04081
C         55.18667        50.06018         0.04871
C         54.00746        50.75622        -0.36310
C         55.28506        52.94636        -0.00695
C         54.04296        52.22566        -0.48546
C         55.09919        54.27348         0.61221
C         53.78563        54.97416         0.55024
C         55.00697        57.26155         0.55353
C         53.70935        56.51656         0.64050
C         55.09201        58.69732         0.06494
C         53.82956        59.47564         0.08929
C         55.15610        61.52479        -0.24333
C         53.89076        60.89964        -0.30681
C         56.39785        50.76967         0.37382
C         57.62086        52.86141         0.90563
C         56.46131        52.15363         0.45281
C         57.52177        54.22136         1.25188
C         56.16012        54.72061         1.35766
C         57.45680        57.27130         0.98404
C         56.19552        56.82079         1.26946
C         57.56871        58.61280         0.37163
C         56.35526        59.41503         0.19983
C         57.59008        61.51865         0.37578
C         56.37134        60.82225         0.08397
C         58.62726        55.09684         1.50151
C         59.81653        57.26588         1.66074
C         58.63559        56.51890         1.41409
C         59.88133        58.67269         1.51958
C         58.85639        59.39418         0.73843
C         59.83710        61.54970         1.41886
C         58.74171        60.86171         0.82379
C         60.90907        59.44826         2.08777
C         60.89002        60.85264         2.00266
O         43.18270        48.31307        -3.24175
O         41.92331        46.04047        -3.02572
O         45.54040        41.19782        -2.49078
O         55.22425        57.57500        -0.87262
O         55.01933        52.79449        -1.43897
O         48.63193        39.33786        -0.13333
O         30.99316        58.50386         2.58637
O         44.96279        43.48507        -2.80999
O         51.90072        46.88240        -1.98810
O         43.76721        38.78456         1.89193
O         36.84315        55.46689         2.29886
O         49.01331        51.37500         0.38984
O         44.95090        38.87774        -1.45308
O         53.06331        59.26771         1.31553
O         48.67518        45.79602        -2.52877
O         43.10215        50.88031        -2.64313
O         41.08050        43.80996        -0.25336
O         40.27829        53.61991        -1.10715
O         37.62482        57.70855        -0.64225
O         56.00663        55.81840         2.22640
O         49.64524        59.00223        -2.21653
O         53.42351        55.68107         1.78689
O         50.97983        52.85891        -2.30468
O         42.59266        51.88848         1.04020
O         41.72196        60.01642         1.84642
O         41.79461        39.25912        -1.79404
O         58.63226        58.83320        -0.58750
O         45.51005        49.52141        -3.12206
O         41.76656        55.59262         1.78801
O         40.67448        41.33304        -2.42541
O         46.99452        56.46092         1.02966
H         46.30752        55.99697         1.55479
O         43.83945        42.38221         0.51030
H         42.98743        42.85378         0.64586
O         51.94279        50.53142        -2.74090
H         51.52768        51.27888        -3.23084
O         47.45460        57.06473        -2.54206
H         48.16080        57.58408        -2.99024
O         39.44013        51.70911         1.90158
H         38.69456        51.17484         2.24871
O         36.54329        52.25190        -1.45234
H         35.75901        51.74414        -1.75207
O         36.88835        59.18279         2.59740
H         36.14445        59.66086         3.01990
O         33.95011        59.07991        -0.84341
H         34.07438        58.15209        -1.13557
O         43.82059        54.15174         1.53543
H         43.35468        53.53041         2.13799
O         43.33629        54.95065        -1.95085
H         43.94346        55.33328        -2.61814
H         29.58981        56.28036         0.48425
H         28.09352        58.64619         0.89395
H         30.37875        62.18922         1.50427
H         28.35280        61.00133         1.28260
H         32.02738        52.11116         0.83086
H         30.78368        54.22007         0.94027
H         32.91994        62.36689         1.24197
H         34.52860        47.88862         0.35601
H         33.29834        49.99038         0.53973
H         35.33593        62.39208         0.79833
H         36.83461        43.69321        -0.71721
H         35.70190        45.76424        -0.11008
H         37.78408        62.38197         0.31678
H         38.79379        39.53111        -0.22389
H         37.77609        41.73308        -0.73036
H         40.23234        62.44785         0.13416
H         41.31948        35.70117         1.33956
H         40.13160        37.57985         0.62762
H         42.81261        62.51206        -0.00031
H         44.30919        32.99255         3.84737
H         42.35940        33.92503         2.60642
H         45.25734        62.53857        -0.11811
H         46.45973        34.25255         3.94143
H         47.77750        36.24435         3.39619
H         47.68517        62.59990        -0.36580
H         49.07842        38.23151         2.96869
H         50.56997        40.24698         2.35169
H         50.19326        62.62690        -0.67047
H         51.96522        42.12124         1.68663
H         53.32662        44.06589         1.22421
H         52.65319        62.63035        -0.72365
H         54.71365        46.07734         0.77780
H         56.01430        48.12159         0.56184
H         55.21655        62.61092        -0.40924
H         57.27304        50.17555         0.67792
H         58.58664        52.33682         0.95839
H         57.57355        62.61890         0.38275
H         59.61271        54.61662         1.62137
H         60.68783        56.74581         2.08806
H         59.82870        62.64889         1.44094
H         61.72132        58.94957         2.63571
H         61.71207        61.41878         2.46310
