         232
 CSIRO Nanostructure Databank - Neutral Graphene Oxide Data Set
C        -11.15467         0.73554         0.44456
C         -9.87529         1.51755         0.64848
C         -8.70567         0.74587         0.09910
C         -7.42883         1.38926        -0.40799
C         -6.28192         0.86449         0.48340
C         -4.98707         1.61122         0.26682
C         -3.73619         0.84537         0.43179
C         -2.43887         1.58169         0.24932
C         -1.24722         0.80522        -0.18757
C         -0.00808         1.57281        -0.42166
C          1.24566         0.86934        -0.18524
C          2.52685         1.54430        -0.47345
C          3.72619         0.74904        -0.68670
C          4.97870         1.47125        -0.39125
C          6.22846         0.67456        -0.67532
C          7.42058         1.32881        -0.54558
C          8.75564         0.62285        -0.44577
C          9.48650         1.09321         0.81973
C         10.37478         0.13030         1.45949
C         -9.89567         2.96984         0.23960
C         -8.76806         3.63797        -0.13140
C         -7.49475         2.92745        -0.55945
C         -6.30024         3.71524         0.02000
C         -4.98971         2.96075         0.08709
C         -3.74679         3.77862         0.10635
C         -2.42018         3.06678         0.04615
C         -1.24776         3.66699        -0.62585
C         -0.04774         2.94673        -0.74830
C          1.20221         3.62247        -1.25434
C          2.51000         2.91772        -1.07117
C          3.79402         3.65916        -0.95780
C          4.96413         2.93325        -0.84760
C          6.25457         3.61302        -0.71545
C          7.47336         2.79587        -0.40183
C          8.50080         3.36198         0.58554
C          9.35571         2.36641         1.27850
C         -8.70445         5.08549        -0.26309
C         -7.53750         5.76581        -0.57356
C         -6.31946         4.93173        -0.93124
C         -4.97962         5.67835        -1.14944
C         -3.85492         5.26532        -0.19084
C         -2.54650         5.84969        -0.72976
C         -1.34866         5.07472        -1.01005
C         -0.05550         5.87149        -1.33269
C          1.28970         5.15243        -1.51327
C          2.45990         5.81311        -0.79383
C          3.73209         5.10309        -0.72481
C          4.86540         5.74516        -0.24529
C          6.17629         5.07112        -0.22062
C          7.12721         5.45400         0.85447
C          8.15899         4.63568         1.24281
C         -7.44891         7.19161        -0.53007
C         -6.26807         7.91243        -0.73197
C         -5.05730         7.20286        -1.06959
C         -3.84298         7.83583        -1.24734
C         -2.55021         7.21334        -1.03602
C         -1.33499         7.97813        -0.85315
C         -0.08265         7.29029        -0.90963
C          1.14457         7.89800        -0.55295
C          2.37306         7.16563        -0.45406
C          3.62468         8.02016        -0.15468
C          4.96342         7.22343         0.07073
C          5.65116         7.37100         1.42253
C          6.73139         6.57049         1.69427
C         -6.25992         9.29825        -0.25693
C         -5.19856        10.11076         0.03399
C         -3.84182         9.82374        -0.40349
C         -2.63704         9.95654         0.21915
C         -1.39205         9.32090        -0.26060
C         -0.21371         9.93095         0.07539
C          1.14601         9.38777        -0.24409
C          2.09675         9.64097         0.90890
C          3.27763         8.97907         0.98637
C          4.17149         9.19808         2.10320
C          5.27410         8.43161         2.31974
C        -11.15149        -0.61732         0.38660
C         -9.91441        -1.38975         0.34341
C         -8.69777        -0.61869         0.13961
C         -7.41236        -1.32019        -0.10861
C         -6.17660        -0.63693         0.22966
C         -4.95469        -1.34844         0.32778
C         -3.75057        -0.62884         0.36538
C         -2.48783        -1.29344         0.71370
C         -1.23917        -0.64359         0.19472
C          0.05504        -1.37293         0.32985
C          1.29319        -0.62076        -0.00932
C          2.39098        -1.39668        -0.68410
C          3.66472        -0.66645        -1.16166
C          4.92994        -1.45557        -0.89029
C          6.14657        -0.78042        -0.79673
C          7.40844        -1.51001        -0.70831
C          8.58837        -0.87946        -0.44715
C          9.89248        -1.61679        -0.28234
C         10.56161        -1.12321         0.99505
C         -9.88893        -2.77255         0.39804
C         -8.67450        -3.54542         0.32756
C         -7.41402        -2.86254        -0.00656
C         -6.14568        -3.53795         0.27833
C         -4.91496        -2.81705         0.36834
C         -3.70280        -3.52191         0.60608
C         -2.46167        -2.79564         0.93277
C         -1.11746        -3.54438         1.02766
C          0.04818        -2.86106         0.32841
C          1.21287        -3.54040         0.15762
C          2.38068        -2.88396        -0.48958
C          3.66642        -3.61404        -0.61068
C          4.83417        -2.90642        -0.88413
C          6.06683        -3.65405        -1.21565
C          7.40103        -2.95155        -1.07311
C          8.61579        -3.76510        -0.78815
C          9.77254        -3.11076        -0.36075
C         -8.62974        -4.91776         0.55018
C         -7.40601        -5.65664         0.45022
C         -6.17850        -4.94184         0.35811
C         -4.90723        -5.65041         0.17105
C         -3.64296        -4.94730         0.46050
C         -2.45021        -5.68608         0.55533
C         -1.17081        -5.01191         0.66783
C          0.01954        -5.68790         0.64746
C          1.35036        -4.95948         0.66619
C          2.47273        -5.73311        -0.01040
C          3.62899        -5.06756        -0.46762
C          4.79721        -5.83553        -0.79896
C          6.00827        -5.14804        -1.25572
C          7.36406        -5.93592        -1.14555
C          8.56387        -5.16909        -0.84125
C         -7.39009        -7.08596         0.56016
C         -6.21979        -7.82964         0.51333
C         -4.93723        -7.17011         0.20810
C         -3.67571        -7.86661         0.48501
C         -2.45905        -7.14176         0.52739
C         -1.24993        -7.86548         0.68377
C          0.05223        -7.15609         0.96127
C          1.25217        -7.87619         0.39698
C          2.42668        -7.16389         0.00240
C          3.59787        -7.91596        -0.32780
C          4.80698        -7.23729        -0.66788
C          6.05309        -7.99024        -0.72509
C          7.27332        -7.34840        -0.78375
C         -6.17176        -9.24949         0.74728
C         -4.98725        -9.93446         0.77593
C         -3.70493        -9.26662         0.67946
C         -2.48349        -9.96385         0.79506
C         -1.26839        -9.26823         0.78072
C          0.03538        -9.99725         1.00115
C          1.23681        -9.27378         0.43255
C          2.39516       -10.00400         0.10502
C          3.58022        -9.34236        -0.23750
C          4.80950       -10.07761        -0.42224
C          5.99252        -9.43048        -0.59487
O          0.20726        -7.21670         2.42514
H          0.19144        -8.17457         2.67522
O          1.83689         2.90295        -2.37226
O         -0.92693         5.46523        -2.39072
O          0.22718       -10.08818         2.43625
H          1.11885       -10.46080         2.59891
O         -4.90237        -6.44319        -1.06982
O          6.78449        -3.13101        -2.37991
O         -2.88995         1.24745         1.59399
O          5.93892         7.72470        -0.87001
H          5.40867         8.26948        -1.51759
O         -4.12172         5.92768         1.06359
H         -3.65245         5.41921         1.76413
O         -4.46651         5.34600        -2.45440
H         -5.13392         5.58103        -3.13264
O         -6.65396         1.10921         1.87182
H         -5.89610         0.84600         2.43737
O         -2.54102        -1.84856         2.06665
O          9.55546         0.90592        -1.58833
O          1.60490         5.35535        -2.90777
H          1.99218         4.51278        -3.24825
O         -0.74946        -3.57124         2.44301
H         -1.05836        -2.71851         2.83394
O         -6.59707         4.12976         1.36207
H         -6.69465         3.31781         1.90983
O          4.98124         1.61634         1.09815
H          4.04152         1.64786         1.40079
O          2.04816         1.53455         0.94524
O          8.69989         3.40721        -0.86032
O         -7.39915        -2.16249        -1.29539
O          3.79627         8.77860        -1.33712
O         -1.50562        -0.24132        -1.20411
O         -6.60241         4.33813        -2.24340
O         -9.67568         1.56209         2.11180
H         -9.53601         0.64096         2.41843
O          3.56634        -0.54578        -2.61478
H          3.04495        -1.32502        -2.92738
O         10.74827        -1.32621        -1.40467
H         10.49191        -0.38192        -1.70623
O          1.76119        -4.82540         2.05965
H          0.97091        -4.48547         2.54903
O          1.58265        10.11643        -1.41661
H          2.50656         9.76637        -1.62133
O         -7.13599         0.81996        -1.69811
H         -7.80106         1.13308        -2.34596
O         -3.82219         9.16908        -1.65487
O         -2.88848         3.68986         1.30657
O          0.98551        -0.93480         1.39000
O         -7.46499         3.17938        -2.01149
O          6.66610        -5.67475        -2.41917
O          1.90258        -2.25552        -1.76395
O          6.58005         4.71980        -1.57775
H         11.26972        -1.79665         1.50169
H         10.92167         0.46607         2.35582
H          9.90639         2.69115         2.17633
H          8.72617         4.90212         2.14891
H          7.31269         6.74360         2.61444
H          5.89732         8.60149         3.21096
H          3.90476         9.99105         2.81874
H          1.81295        10.37310         1.68172
H         -0.24545        10.92901         0.53882
H         -2.56389        10.53974         1.14905
H         -5.38525        11.02485         0.61905
H         -7.24594         9.64922         0.09137
H         -8.34420         7.73986        -0.19607
H         -9.61260         5.66164        -0.02547
H        -10.80912         3.54108         0.46906
H        -12.10972         1.28144         0.47759
H        -12.10281        -1.16944         0.33920
H        -10.83512        -3.31759         0.53882
H         -9.56207        -5.46333         0.76041
H         -8.34528        -7.60349         0.73729
H         -7.12033        -9.78798         0.89017
H         -4.99066       -11.02302         0.93268
H         -2.48795       -11.05654         0.92082
H         -0.02418       -11.04022         0.57979
H          2.38314       -11.10283         0.16962
H          4.77741       -11.17498        -0.35732
H          6.93092        -9.99759        -0.67773
H          8.20176        -7.91569        -0.61902
H          9.43459        -5.73000        -0.46546
H         10.70949        -3.68618        -0.29386
