         228
 CSIRO Nanostructure Databank - Neutral Graphene Oxide Data Set
C        -10.87374         0.24831         0.81386
C         -9.81116         1.10988         0.34351
C         -8.86269         0.60197        -0.72338
C         -7.52688         1.31525        -0.67652
C         -6.33083         0.64452        -1.22256
C         -5.00395         1.30160        -1.03922
C         -3.83588         0.61744        -1.15899
C         -2.56545         1.37568        -1.35125
C         -1.26417         0.61261        -1.49723
C          0.06357         1.37069        -1.60613
C          1.24725         0.64541        -0.97648
C          2.52633         1.40773        -0.91589
C          3.80515         0.64516        -0.82438
C          5.06005         1.46287        -0.72717
C          6.21227         0.90077         0.04214
C          7.49751         1.61758        -0.16700
C          8.79176         0.92674        -0.03849
C          9.97287         1.51609        -0.70285
C         11.08296         0.62501        -0.94376
C         -9.66937         2.37972         0.84020
C         -8.56540         3.22211         0.47152
C         -7.47958         2.63515        -0.28262
C         -6.30839         3.48065        -0.64444
C         -5.01703         2.78994        -0.97417
C         -3.72983         3.50817        -0.79197
C         -2.56166         2.83222        -1.01868
C         -1.26822         3.47897        -0.69097
C          0.01661         2.75099        -0.93734
C          1.31936         3.52726        -0.89809
C          2.52582         2.81750        -1.51525
C          3.81493         3.63020        -1.32096
C          5.04943         2.94178        -0.89340
C          6.23478         3.65344        -0.72225
C          7.49319         2.93955        -0.53083
C          8.75349         3.65614        -0.72065
C          9.95501         2.87645        -0.93729
C         -8.46898         4.52806         0.96294
C         -7.36402         5.36515         0.71126
C         -6.31654         4.97154        -0.30871
C         -4.94336         5.53855         0.02149
C         -3.73897         4.89686        -0.31883
C         -2.49652         5.59753        -0.14735
C         -1.22801         4.94239        -0.42913
C         -0.03106         5.63142        -0.39340
C          1.28615         5.00537        -0.65829
C          2.49646         5.85794        -0.87887
C          3.76107         5.13904        -1.18346
C          5.06115         5.85187        -0.96417
C          6.28304         5.08596        -0.76410
C          7.50160         5.77654        -0.55561
C          8.73771         5.04093        -0.66992
C         -7.28645         6.65178         1.25205
C         -6.13518         7.45082         1.08298
C         -4.93418         6.86741         0.53442
C         -3.72130         7.59719         0.58796
C         -2.51396         6.94869         0.25773
C         -1.25370         7.69635         0.44196
C          0.02939         7.02117         0.09526
C          1.19601         7.93160        -0.29393
C          2.51012         7.17008        -0.43602
C          3.73410         7.88522        -0.14830
C          5.03887         7.31195        -0.50963
C          6.28572         7.84152         0.06538
C          7.47798         7.14462        -0.14020
C         -6.09582         8.79413         1.56968
C         -4.94770         9.54253         1.51908
C         -3.71177         8.98703         1.03119
C         -2.56313         9.74780         0.97647
C         -1.28105         9.21811         0.39759
C         -0.02361         9.79861         1.09429
C          1.26593         9.12473         0.64805
C          2.45971         9.64873         1.02060
C          3.72277         9.05329         0.61915
C          4.96076         9.64794         1.03661
C          6.18599         9.07033         0.78822
C        -11.00705        -1.03475         0.41052
C        -10.12444        -1.63161        -0.66349
C         -8.78361        -0.91264        -0.73479
C         -7.63453        -1.57260        -1.02070
C         -6.35920        -0.87789        -1.35856
C         -5.07370        -1.59398        -1.19174
C         -3.82257        -0.83412        -1.61844
C         -2.50504        -1.57815        -1.31240
C         -1.21894        -0.84434        -1.17049
C         -0.05192        -1.50950        -0.83465
C          1.30685        -0.85560        -1.13710
C          2.52119        -1.43959        -0.41462
C          3.69603        -0.74776        -0.27990
C          5.01806        -1.43967         0.07357
C          6.17079        -0.50981         0.54479
C          7.51595        -1.16759         0.65391
C          8.78467        -0.52948         0.26535
C          9.92331        -1.40325        -0.09175
C         11.05529        -0.72671        -0.67951
C        -10.00996        -3.12680        -0.52179
C         -8.85193        -3.79834        -0.75618
C         -7.62160        -3.05068        -1.10309
C         -6.29348        -3.75111        -0.92788
C         -5.05170        -2.93520        -0.83555
C         -3.84318        -3.61695        -0.47961
C         -2.53995        -2.99424        -0.77594
C         -1.31343        -3.56387        -0.19167
C         -0.08031        -2.88626        -0.33776
C          1.11900        -3.55332         0.05784
C          2.43455        -2.90092        -0.13855
C          3.64923        -3.57384         0.44856
C          4.78522        -2.72646         0.87576
C          5.76587        -3.38966         1.57397
C          7.69542        -2.37542         1.25645
C          8.68863        -3.34465         0.83006
C          9.84169        -2.76656         0.16013
C         -8.74490        -5.24304        -0.78590
C         -7.54421        -5.89951        -0.63631
C         -6.31509        -5.13156        -0.40426
C         -5.15623        -5.62146         0.19158
C         -3.88132        -4.90409         0.09352
C         -2.66683        -5.52065         0.51972
C         -1.38732        -4.85384         0.40742
C         -0.19133        -5.47322         0.86055
C          1.05973        -4.84586         0.65064
C          2.27029        -5.50966         1.14217
C          3.47262        -4.87098         1.13333
C          4.67405        -5.56385         1.76564
C          5.94299        -4.81682         1.50744
C          7.16476        -5.41174         1.19077
C          8.41082        -4.71403         0.87390
C         -7.47327        -7.35453        -0.88372
C         -6.72195        -8.18218        -0.10742
C         -5.12094        -6.90749         0.83895
C         -3.95711        -7.54254         1.14134
C         -2.68751        -6.87386         1.01722
C         -1.52819        -7.49501         1.42405
C         -0.23701        -6.79383         1.60163
C          0.96635        -7.64674         1.27326
C          2.24768        -6.95326         1.66874
C          3.51912        -7.66456         1.25759
C          4.69825        -6.99345         1.30706
C          5.96733        -7.59356         0.92676
C          7.12734        -6.84723         0.91876
C         -6.29151        -9.52791        -0.47182
C         -5.11424       -10.17409        -0.20992
C         -3.92209        -9.75514         0.52454
C         -2.66443       -10.17498         0.15830
C         -1.44568        -9.59195         0.69049
C         -0.21804        -9.60135         0.09213
C          0.97894        -8.89330         0.59454
C          2.19798        -9.55031         0.35380
C          3.46562        -9.14748         1.05817
C          4.74593        -9.68176         0.46718
C          5.89969        -8.97718         0.46959
O         -4.05155        -8.87114         1.61313
O          3.37532        -3.66718        -1.00217
O         -2.05483         0.98379        -2.68060
O          2.28893        -6.95881         3.14217
H          1.43205        -6.55379         3.44619
O         -2.37452        -2.71354        -2.23270
O          5.19170         6.95326        -1.91849
O          5.86058         0.57632         1.45108
O         -1.56743        -8.81717         1.88041
O         -3.93025        -0.78118        -3.06311
H         -3.62604        -1.65409        -3.40050
O         -0.39396         7.14305         1.50545
O          4.53193        -5.51506         3.21273
H          3.75175        -6.07846         3.45665
O          1.53495        -1.11179        -2.54957
H          1.19364        -0.33898        -3.06287
O         -9.43983         0.98313        -2.02597
H         -8.74030         0.82100        -2.69968
O          5.52649        -1.94040        -1.19777
H          4.82260        -2.51990        -1.58312
O         -1.30202         9.65025        -0.97712
H         -0.45753         9.29564        -1.42130
O          0.91409         8.43871        -1.59844
O          3.33072        -9.75017         2.40284
H          2.86557        -9.08966         2.96555
O         -6.50048        -0.00272        -2.52627
O          4.69764         0.74911        -1.97346
O         -6.73052         5.67253        -1.51829
H         -6.36580         5.15877        -2.27706
O          0.33696         1.43172        -3.01457
H         -0.52712         1.51264        -3.48497
O         -0.60214         2.67549         0.37394
O          9.13084         0.47239         1.33131
O        -10.80934        -1.38909        -1.93006
H        -10.64698        -0.44060        -2.16337
O          3.92807         4.50215        -2.51014
O         -0.24898        -6.45449         3.06998
H         -0.62817        -7.23421         3.53294
O          6.77393        -2.72028         2.23845
O          1.61577         4.02280         0.43030
O          2.36290         2.65435        -2.92592
H          2.85446         3.38577        -3.37041
O          1.70820         1.19835         0.28001
O         -0.15681         9.67177         2.51660
H         -0.13723         8.70788         2.71869
O         -5.89140         3.30783        -2.04609
O         -6.29189        -7.63199         1.11661
O         -6.92130        -3.59945        -2.25548
H         11.94749        -1.32740        -0.91360
H         11.99667         1.05624        -1.38091
H         10.85519         3.38853        -1.31092
H          9.68400         5.60144        -0.70663
H          8.42640         7.60707         0.17336
H          7.10366         9.54121         1.17010
H          4.91288        10.58216         1.61516
H          2.49298        10.55111         1.65076
H          0.02898        10.89454         0.86837
H         -2.60732        10.81100         1.26033
H         -4.95009        10.58295         1.87534
H         -7.01923         9.23028         1.97773
H         -8.12385         7.03805         1.85314
H         -9.27735         4.90882         1.60611
H        -10.39906         2.76459         1.56909
H        -11.57233         0.66909         1.55429
H        -11.83734        -1.64658         0.79425
H        -10.93299        -3.68469        -0.30154
H         -9.66688        -5.82781        -0.91843
H         -7.95936        -7.73462        -1.79576
H         -6.95813       -10.03271        -1.19151
H         -4.97604       -11.12561        -0.75146
H         -2.56216       -10.85867        -0.69704
H         -0.06510       -10.25160        -0.78210
H          2.16931       -10.53128        -0.14662
H          4.73993       -10.72038         0.10244
H          6.82201        -9.43563         0.08017
H          8.06547        -7.33165         0.60509
H          9.20309        -5.37361         0.47952
H         10.65983        -3.43078        -0.15941
