         600
 CSIRO Nanostructure Databank - Neutral Graphene Oxide Data Set
C         23.66697        27.65354        -3.53233
C         23.54272        28.97136        -3.23501
C         23.53077        31.91511        -2.66374
C         23.53012        33.28237        -2.41882
C         23.24749        36.09351        -1.44134
C         23.15523        37.36225        -0.96955
C         22.99397        40.20672        -0.14717
C         22.95996        41.56969         0.09614
C         22.87658        44.55950         0.46784
C         22.92288        45.91377         0.55228
C         26.04410        24.77725        -3.03878
C         24.92253        25.49694        -3.43493
C         25.77462        27.43961        -2.25563
C         24.76073        26.84056        -3.03604
C         25.58196        28.78430        -1.71442
C         24.39319        29.61178        -2.21285
C         25.53692        31.65326        -1.28712
C         24.49807        31.08346        -2.07721
C         25.56889        33.07416        -1.09846
C         24.52455        33.86869        -1.61805
C         25.63370        35.98688        -0.63410
C         24.51554        35.34513        -1.41658
C         25.47997        37.38984        -0.17926
C         24.28784        38.07743        -0.41504
C         25.41544        40.20695         0.16375
C         24.21289        39.49020        -0.10974
C         25.38480        41.62287         0.35013
C         24.14032        42.29956         0.35327
C         25.42767        44.51010         0.61951
C         24.08737        43.74497         0.66596
C         25.39951        45.97517         0.44223
C         24.16708        46.65382         0.60117
C         25.36532        48.76806         0.61377
C         24.17284        48.06605         0.65632
C         28.23490        23.22058        -1.81710
C         28.25060        24.63311        -1.84824
C         27.08747        25.38824        -2.31370
C         28.08918        27.46784        -1.35712
C         26.97929        26.76112        -1.96958
C         27.97561        28.77198        -0.90566
C         26.72288        29.47885        -1.10464
C         27.59779        31.32937         0.22582
C         26.60162        30.81212        -0.77274
C         27.42074        32.79268         0.43802
C         26.60069        33.65824        -0.23092
C         27.87566        35.92203         0.59817
C         26.62125        35.12308         0.08116
C         27.90085        37.37967         0.35523
C         26.67433        38.08775         0.19735
C         27.90109        40.22934         0.26940
C         26.66459        39.50948         0.22736
C         27.89739        41.64869         0.24613
C         26.63982        42.35452         0.36301
C         27.84724        44.46458        -0.09523
C         26.63853        43.74422         0.33317
C         27.80571        45.95989        -0.20264
C         26.59187        46.69943         0.22518
C         27.85819        48.84461         0.39560
C         26.60119        48.10867         0.39056
C         27.96475        50.14391         0.86635
C         30.52631        23.17994        -0.99649
C         29.34596        22.51383        -1.39637
C         30.54386        24.60222        -0.98235
C         29.39066        25.31634        -1.38572
C         30.52902        27.47512        -0.70248
C         29.44016        26.81865        -1.50914
C         30.44442        28.83014        -0.39801
C         29.15615        29.52960        -0.45313
C         30.31908        31.69448        -0.06191
C         29.04241        30.84431        -0.04495
C         30.35917        33.09266         0.53893
C         29.26610        33.86419         0.93262
C         30.37631        35.94969         0.40933
C         29.18352        35.25419         0.71212
C         30.37620        37.37622         0.29238
C         29.12928        38.08260         0.30803
C         30.37162        40.22073         0.18823
C         29.13626        39.51397         0.24209
C         30.37312        41.64658         0.14651
C         29.13534        42.36152         0.15600
C         30.35852        44.50619        -0.02344
C         29.15047        43.77988         0.01679
C         30.37610        45.94676        -0.14810
C         29.11344        46.68286        -0.31658
C         30.39503        48.83417         0.20305
C         29.09950        48.18922        -0.05331
C         30.40779        50.22598         0.55866
C         29.19639        50.83744         0.88774
C         32.94288        20.33921        -0.46984
C         31.75215        21.03652        -0.65052
C         32.92783        23.15457        -0.36091
C         31.72878        22.44313        -0.66015
C         32.92724        24.58527        -0.28312
C         31.73964        25.31328        -0.57502
C         32.89565        27.40901         0.02347
C         31.72476        26.72850        -0.43358
C         32.85499        28.82049         0.23040
C         31.62169        29.52805         0.07157
C         32.78516        31.61854         0.58108
C         31.58750        30.92349         0.26659
C         32.81056        33.07506         0.54691
C         31.59073        33.79995         0.41358
C         32.84370        35.91424         0.25719
C         31.60397        35.22465         0.38743
C         32.84992        37.35823         0.16782
C         31.60832        38.07555         0.20209
C         32.84432        40.21328         0.14001
C         31.61252        39.50450         0.16822
C         32.84560        41.64569         0.09235
C         31.60791        42.36527         0.09071
C         32.84110        44.50124         0.07376
C         31.60503        43.79142         0.04685
C         32.85352        45.95737         0.00392
C         31.58501        46.66949        -0.12083
C         32.82377        48.86704        -0.15996
C         31.56837        48.10777        -0.01990
C         32.87289        50.28528         0.22904
C         31.67528        50.95370         0.56918
C         32.93136        53.02809         0.76743
C         31.73614        52.33630         0.85702
C         35.51104        18.97976        -0.76369
C         35.43325        20.31193        -0.28086
C         34.15148        21.01552        -0.25480
C         35.32175        23.13869         0.24854
C         34.13491        22.43530        -0.11719
C         35.32711        24.53232         0.34697
C         34.12289        25.27513         0.08519
C         35.30450        27.39160         0.61702
C         34.10615        26.68696         0.24357
C         35.27795        28.78963         0.78513
C         34.04172        29.51785         0.61789
C         35.18436        31.60493         1.45397
C         33.99528        30.91968         0.80152
C         35.21625        33.17915         1.34344
C         34.01875        33.77984         0.64230
C         35.33365        35.83773         0.17862
C         34.03766        35.17076         0.37447
C         35.33989        37.35277         0.02213
C         34.06293        38.07677         0.13150
C         35.33100        40.20679         0.18812
C         34.08109        39.49681         0.16106
C         35.33924        41.63135         0.13132
C         34.07595        42.35302         0.07264
C         35.32875        44.47327         0.30685
C         34.04983        43.77006         0.10165
C         35.32764        45.97128         0.34145
C         34.05818        46.65192         0.06349
C         35.38601        48.82963         0.07162
C         34.13280        48.09545        -0.19327
C         35.37249        50.23290         0.13663
C         34.12085        50.96402         0.24101
C         35.39637        53.09606         0.36491
C         34.14255        52.36870         0.45823
C         35.43258        54.50440         0.37170
C         37.93551        18.99806        -0.54223
C         36.72572        18.34315        -0.88558
C         37.87597        20.33374        -0.03875
C         36.61188        20.98025         0.07515
C         37.80018        23.11327         0.70827
C         36.50870        22.33973         0.72066
C         37.76828        24.52503         0.86832
C         36.54185        25.24612         0.69717
C         37.74952        27.35498         1.09759
C         36.53181        26.65354         0.79787
C         37.73271        28.79425         1.17359
C         36.51047        29.50661         1.04468
C         37.72057        31.63926         1.25361
C         36.49865        30.92267         1.14811
C         37.73480        33.08799         1.12736
C         36.53880        33.78733         0.91982
C         37.79311        35.90185         0.58545
C         36.57667        35.16637         0.58482
C         37.79456        37.34983         0.43630
C         36.59611        38.07071         0.27822
C         37.80511        40.21131         0.35654
C         36.57302        39.49683         0.28292
C         37.80615        41.64086         0.26951
C         36.57520        42.32176         0.13335
C         37.84652        44.52371         0.18571
C         36.58175        43.79214        -0.18678
C         37.83140        45.95328         0.20773
C         36.61335        46.68417         0.16370
C         37.85362        48.81138         0.18976
C         36.61364        48.09909         0.14282
C         37.84662        50.23709         0.19577
C         36.61580        50.94814         0.20708
C         37.86196        53.09079         0.19977
C         36.62247        52.37899         0.25472
C         37.86269        54.51664         0.16518
C         36.63039        55.19525         0.25434
C         40.52135        16.39935        -1.36737
C         39.30435        17.01674        -1.21507
C         40.39571        19.03804        -0.34951
C         39.20854        18.34501        -0.70318
C         40.32909        20.36790         0.18951
C         39.08165        21.01837         0.33543
C         40.21159        23.11131         1.11750
C         39.01908        22.41827         0.73193
C         40.18769        24.48089         1.38413
C         38.97752        25.22867         1.17764
C         40.16872        27.36717         1.83442
C         38.94896        26.64245         1.30460
C         40.19250        28.82943         1.51562
C         38.95699        29.51787         1.37683
C         40.18457        31.66876         1.77591
C         38.93636        30.93535         1.37583
C         40.18345        33.11052         1.35325
C         38.99686        33.79144         1.09220
C         40.24755        35.94144         0.86679
C         39.00593        35.22080         0.85686
C         40.25421        37.36730         0.68343
C         39.03085        38.07138         0.53119
C         40.26910        40.22262         0.50895
C         39.03491        39.50078         0.46132
C         40.27163        41.65938         0.44823
C         39.04912        42.36477         0.32207
C         40.29873        44.52147         0.40076
C         39.05111        43.81040         0.29855
C         40.30434        45.94722         0.36133
C         39.07532        46.66674         0.27186
C         40.32111        48.80425         0.30335
C         39.07928        48.08999         0.25314
C         40.32136        50.22837         0.27027
C         39.09059        50.94966         0.21899
C         40.34433        53.07731         0.16823
C         39.09780        52.36931         0.19195
C         40.33919        54.51188         0.04116
C         39.11832        55.23197         0.02725
C         40.34463        57.31958        -0.28446
C         39.15183        56.64313        -0.13594
C         42.98220        16.44102        -1.17777
C         41.72571        17.07517        -1.02404
C         42.87283        19.09580        -0.18558
C         41.66729        18.40745        -0.51714
C         42.79711        20.42586         0.37457
C         41.54721        21.01416         0.59197
C         42.72685        22.98245         1.72868
C         41.44502        22.30979         1.29282
C         42.74254        24.47621         1.91028
C         41.42765        25.20815         1.77281
C         42.66787        27.34279         1.42246
C         41.46485        26.66349         1.54071
C         42.67409        28.79011         1.31546
C         41.43675        29.52079         1.42179
C         42.66892        31.64349         1.20783
C         41.45294        30.93763         1.40390
C         42.69541        33.06871         1.19339
C         41.46454        33.85128         1.58340
C         42.70392        35.94075         0.98601
C         41.46025        35.26000         1.06538
C         42.71311        37.37132         0.82825
C         41.49171        38.08114         0.71216
C         42.73471        40.22706         0.63149
C         41.49505        39.51399         0.61319
C         42.74267        41.65773         0.61239
C         41.51623        42.37278         0.52512
C         42.76636        44.52001         0.56240
C         41.52582        43.80616         0.50036
C         42.77375        45.94638         0.50879
C         41.54410        46.66073         0.41500
C         42.78438        48.80993         0.45678
C         41.54817        48.08864         0.37737
C         42.77367        50.22168         0.45626
C         41.56046        50.93906         0.33361
C         42.82451        53.08309         0.18555
C         41.56449        52.37328         0.25334
C         42.81987        54.50075        -0.03887
C         41.57872        55.20894        -0.09013
C         42.81985        57.30758        -0.40432
C         41.57839        56.62137        -0.26205
C         44.14330        17.10408        -0.84067
C         45.35778        19.11518        -0.01718
C         44.12065        18.43445        -0.34455
C         45.33285        20.61897         0.16421
C         44.02468        21.13426         0.71520
C         45.22039        23.04518         1.88924
C         43.99817        22.34306         1.34553
C         45.22394        24.52250         1.51929
C         43.98625        25.22345         1.58096
C         45.14769        27.33708         1.12532
C         43.93293        26.61916         1.37802
C         45.12973        28.75545         0.97568
C         43.88748        29.48480         1.10588
C         45.11481        31.62420         0.81398
C         43.89235        30.91244         1.02594
C         45.12874        33.04188         0.81404
C         43.90415        33.77079         1.02388
C         45.21703        35.92177         1.20734
C         43.91281        35.20322         1.03085
C         45.18243        37.37369         0.79958
C         43.96054        38.07652         0.76433
C         45.20086        40.20855         0.65318
C         43.96095        39.50514         0.66001
C         45.19657        41.62815         0.73456
C         43.99223        42.36242         0.70280
C         45.22174        44.53187         0.70094
C         44.00276        43.80851         0.68289
C         45.25086        45.94313         0.57393
C         44.01490        46.66886         0.52988
C         45.27934        48.79752         0.51718
C         44.02628        48.08459         0.51987
C         45.29401        50.21205         0.50038
C         44.03081        50.97232         0.80653
C         45.28207        53.08404         0.18953
C         44.04082        52.39959         0.32660
C         45.28625        54.48865        -0.07111
C         44.04474        55.20737        -0.16228
C         44.00833        56.62357        -0.35732
C         47.78952        19.15360         0.21092
C         46.57033        18.46813        -0.04465
C         47.81506        20.46411         0.64003
C         46.56301        21.18426         0.86212
C         47.75675        23.08905         2.04809
C         46.52264        22.36770         1.54144
C         47.72269        24.55362         1.52246
C         46.43422        25.19821         1.29315
C         47.56895        27.33329         0.71082
C         46.38861        26.62575         1.03511
C         47.56540        28.73648         0.55908
C         46.33750        29.46324         0.71962
C         47.54665        31.59055         0.35866
C         46.33821        30.89152         0.62258
C         47.55150        33.02267         0.29818
C         46.35418        33.75931         0.57951
C         47.59870        35.88054         0.40598
C         46.39931        35.16859         0.65916
C         47.63009        37.32043         0.46192
C         46.40840        38.06352         0.62927
C         47.69033        40.18242         0.49283
C         46.43362        39.48561         0.59585
C         47.73309        41.60343         0.59698
C         46.48578        42.30857         0.92745
C         47.75979        44.50899         0.58307
C         46.49720        43.83101         0.91376
C         47.74284        45.92437         0.47286
C         46.50221        46.64463         0.52740
C         47.75402        48.78200         0.48596
C         46.51290        48.06850         0.48977
C         47.73453        50.19730         0.48430
C         46.51472        50.92044         0.43528
C         47.74742        53.07356         0.18930
C         46.52491        52.37097         0.30555
C         47.72095        54.47281        -0.07368
C         46.53552        55.15393        -0.20490
C         50.32574        20.54269         0.66654
C         49.06801        21.11399         0.99030
C         50.26369        22.86847         2.08372
C         49.03265        22.34001         1.68293
C         50.17398        24.94281         1.80688
C         48.87638        25.31388         1.34476
C         50.08442        27.31512         0.38907
C         48.80850        26.52222         0.43075
C         50.03467        28.73356         0.14779
C         48.78518        29.44920         0.28281
C         50.00074        31.57972        -0.00250
C         48.77234        30.85890         0.19121
C         49.97725        32.98130        -0.06719
C         48.76231        33.72553         0.05254
C         50.00231        35.89186        -0.12050
C         48.78681        35.16241         0.07681
C         50.04310        37.27124         0.04221
C         48.84694        38.01644         0.28412
C         50.13601        40.17096         0.17143
C         48.89498        39.45517         0.32489
C         50.15882        41.59877         0.22290
C         48.94096        42.31927         0.45395
C         50.19146        44.46461         0.23545
C         48.95706        43.76959         0.45514
C         50.19823        45.89378         0.18658
C         48.97892        46.62608         0.33212
C         50.24210        48.72525         0.27112
C         48.99957        48.05168         0.38640
C         50.31692        50.16944         0.51924
C         48.98614        50.95076         0.63588
C         50.24741        53.01828         0.24302
C         49.01180        52.38566         0.34451
C         51.52162        21.19558         0.93419
C         52.70247        23.28977         1.68250
C         51.51621        22.42689         1.62422
C         52.63822        24.69198         1.40358
C         51.37603        25.39280         1.24958
C         52.55472        27.33546         0.28751
C         51.32200        26.67311         0.57944
C         52.46503        28.63644        -0.45821
C         51.21991        29.42228        -0.12799
C         52.45154        31.51681        -0.42620
C         51.23930        30.84875        -0.18363
C         52.52582        32.96721        -0.30652
C         51.23911        33.72835        -0.11839
C         52.53370        35.81691        -0.52893
C         51.19220        35.13733        -0.66083
C         52.61281        37.24665        -0.15864
C         51.33639        37.99303         0.08984
C         52.57629        40.13752        -0.21611
C         51.34968        39.46080        -0.02287
C         52.59321        41.55528        -0.11445
C         51.40537        42.29225         0.09587
C         52.62588        44.46125        -0.09177
C         51.42007        43.74529         0.10508
C         52.63795        45.87396        -0.21588
C         51.42085        46.59700        -0.03873
C         52.66978        48.73954        -0.24729
C         51.43707        48.02491        -0.01842
C         52.69345        50.16368        -0.24064
C         51.51371        50.91444         0.12157
C         51.46040        52.30602         0.13475
C         55.13782        23.38630         1.63066
C         53.96413        22.67245         1.80030
C         55.11079        24.73894         1.21923
C         53.84920        25.38414         1.07780
C         55.02360        27.41822         0.21640
C         53.79147        26.72858         0.54076
C         54.98612        28.77283        -0.24708
C         53.73869        29.42915        -0.40714
C         54.89801        31.54000        -0.88955
C         53.69526        30.81527        -0.61437
C         54.84159        32.95804        -1.14931
C         53.70576        33.67106        -0.83871
C         54.98886        35.82298        -0.76697
C         53.68490        35.12107        -0.76795
C         54.99481        37.29540        -0.86216
C         53.82319        38.00583        -0.54482
C         55.01761        40.11797        -0.83515
C         53.80455        39.41767        -0.51888
C         55.07972        41.53696        -0.67208
C         53.90282        42.22920        -0.12491
C         55.11427        44.43994        -0.60866
C         53.91617        43.75461        -0.10414
C         55.07745        45.86258        -0.71598
C         53.86733        46.57890        -0.47454
C         55.08040        48.71278        -0.81359
C         53.87085        48.00894        -0.51883
C         55.05334        50.13057        -0.84572
C         53.90148        50.83161        -0.56521
C         57.60706        24.85154         1.09608
C         56.34330        25.45049         0.91862
C         57.49455        27.50958         0.14551
C         56.27977        26.79312         0.42726
C         57.46126        28.85819        -0.29921
C         56.19720        29.50597        -0.46729
C         57.37088        31.59766        -1.15945
C         56.14199        30.87387        -0.85569
C         57.32367        32.90484        -1.61755
C         56.03074        33.65248        -1.76340
C         57.36833        35.82551        -1.71203
C         56.20203        35.06512        -1.20136
C         57.31629        37.24106        -1.73979
C         56.16899        37.97081        -1.29185
C         57.38330        40.12730        -1.56408
C         56.17282        39.40679        -1.26317
C         57.43315        41.54243        -1.38009
C         56.25884        42.25403        -0.94864
C         57.48657        44.40496        -1.24530
C         56.27779        43.70264        -0.90347
C         57.48756        45.83331        -1.26581
C         56.28568        46.56743        -1.02432
C         57.52355        48.65882        -1.35761
C         56.29675        47.98842        -1.07140
C         58.78431        25.53524         0.81058
C         59.95893        27.58215         0.06324
C         58.75368        26.86180         0.34102
C         59.92493        28.88292        -0.36160
C         58.68305        29.57963        -0.54768
C         59.83436        31.72116        -1.17061
C         58.64036        30.92915        -0.97474
C         59.80577        32.97459        -1.68658
C         58.53528        33.59138        -2.20098
C         59.67045        35.85252        -2.51828
C         58.50923        35.11153        -2.12169
C         59.65964        37.21140        -2.61506
C         58.38223        37.99305        -2.49568
C         59.70819        40.13971        -2.26825
C         58.52485        39.43341        -2.05104
C         59.77616        41.51579        -2.04987
C         58.64609        42.24583        -1.64525
C         59.86827        44.42454        -1.80507
C         58.67850        43.69658        -1.54995
C         59.88245        45.80537        -1.79803
C         58.69441        46.53531        -1.55109
C         58.68335        47.95911        -1.58620
O         46.55426        43.08062         2.17902
O         33.49076        48.55345        -1.43466
O         24.80576        44.09246         1.89000
O         29.06597        47.63436        -1.42064
O         25.67476        35.95282        -2.10422
O         35.08100        33.72434         2.65491
O         55.94346        35.24056         0.21546
O         27.59194        45.13396        -1.40677
O         35.37517        45.15011         1.59254
O         28.16128        33.24198         1.53273
O         54.17188        42.97164         1.11511
O         52.10177        33.50381         1.02176
O         26.78085        35.48697         1.46930
O         50.24246        24.03126         2.88467
O         41.91852        22.25430         2.69259
O         52.17336        37.51027         1.22362
O         35.42716        36.46739        -1.15398
O         49.76184        50.56389         1.81447
O         42.01400        24.89713         3.10408
O         24.34810        28.92284        -0.92315
O         30.44115        32.01939        -1.50932
H         30.59796        31.17534        -1.98594
O         55.75794        33.81320        -3.19274
H         56.61682        33.70430        -3.67227
O         48.64310        25.95669        -0.92623
H         48.75204        26.69496        -1.56317
O         44.00960        51.07558         2.28697
H         44.03727        50.16155         2.64284
O         57.86650        38.09776        -3.89092
H         57.78464        37.18116        -4.23260
O         35.02970        31.29755         2.86826
H         34.98582        32.20736         3.30408
O         52.30635        28.25687        -1.89135
H         53.10132        27.73755        -2.13912
O         40.18118        31.68122         3.27691
H         39.25470        31.83141         3.56708
O         41.56995        34.00169         3.05790
H         41.24865        33.14669         3.44955
O         36.48136        43.88586        -1.65400
H         37.24476        43.40429        -2.03732
O         45.04097        22.98505         3.33131
H         45.92051        23.14967         3.75052
O         36.24579        22.08197         2.15364
H         37.02614        21.60889         2.51419
O         47.70578        23.16660         3.50315
H         48.53512        23.62040         3.78693
O         45.43648        35.94943         2.67809
H         44.60825        36.27483         3.09225
O         40.04563        27.29652         3.31045
H         40.43860        26.44489         3.60627
O         27.24682        30.70862         1.50827
H         27.64502        31.26625         2.21287
O         29.81280        27.08072        -2.92060
H         30.64823        26.59546        -3.09162
O         45.39139        21.16307        -1.20471
H         46.21143        20.81864        -1.61850
O         58.47860        33.30256        -3.67112
H         58.64101        32.34011        -3.77861
O         50.93313        34.96945        -2.09655
H         50.79510        35.85605        -2.49069
H         22.97967        27.19252        -4.25760
H         22.77279        29.56754        -3.74526
H         22.73464        31.48520        -3.28550
H         22.74133        33.90583        -2.86018
H         22.33728        35.58170        -1.78515
H         22.18090        37.86796        -1.01594
H         22.04889        39.68259        -0.34048
H         21.98944        42.08411         0.09438
H         21.91378        44.05965         0.29089
H         21.99141        46.49500         0.47961
H         26.12883        23.72268        -3.33495
H         24.14681        25.01481        -4.04686
H         25.34190        49.86212         0.70593
H         23.22114        48.60515         0.76663
H         27.33686        22.67137        -2.12970
H         27.07170        50.67747         1.21974
H         29.30178        21.41716        -1.39788
H         29.17961        51.88757         1.20736
H         32.91874        19.24222        -0.51116
H         30.83276        20.46216        -0.82186
H         32.92784        54.10700         0.97044
H         30.82550        52.88806         1.12454
H         34.59961        18.44497        -1.06086
H         34.50153        55.08191         0.44295
H         36.74167        17.31437        -1.26696
H         36.59936        56.29249         0.24419
H         40.57829        15.37330        -1.75832
H         38.39619        16.46619        -1.49181
H         40.34798        58.41093        -0.41798
H         38.21548        57.21595        -0.15925
H         43.02347        15.41537        -1.57128
H         42.81311        58.39800        -0.54584
H         45.10093        16.58621        -0.98078
H         44.94452        57.18718        -0.46220
H         48.72248        18.58301         0.11540
H         46.63379        17.39251        -0.25592
H         48.66221        55.02753        -0.17783
H         46.56931        56.23116        -0.41206
H         50.36445        19.59355         0.11608
H         50.29926        54.10971         0.13260
H         52.46726        20.77649         0.56281
H         52.36930        52.89299        -0.05400
H         56.09300        22.86274         1.76369
H         54.01423        21.60217         2.04506
H         55.96298        50.69590        -1.08466
H         53.93391        51.92855        -0.58482
H         57.68472        23.82380         1.47402
H         57.55600        49.75537        -1.39398
H         59.75400        25.03981         0.96288
H         60.92306        27.07211         0.20406
H         60.87277        29.39993        -0.56239
H         60.80450        31.30464        -0.86425
H         60.74832        33.52917        -1.79873
H         60.59882        35.30841        -2.74464
H         60.56892        37.72333        -2.95934
H         60.60461        39.62785        -2.64215
H         60.72785        42.02482        -2.24907
H         60.80501        43.89259        -2.01607
H         60.81564        46.34979        -2.00172
H         59.61904        48.49429        -1.80320
