         204
 CSIRO Nanostructure Databank - Neutral Graphene Oxide Data Set
C        -10.91071         0.59163        -1.05590
C         -9.71097         1.34151        -0.80106
C         -8.53093         0.64382        -0.35620
C         -7.32999         1.36983        -0.10705
C         -6.16859         0.68708         0.37738
C         -4.98589         1.43850         0.66125
C         -3.81118         0.75264         1.24744
C         -2.50282         1.53069         1.37470
C         -1.25178         0.73562         1.32094
C          0.02505         1.44582         1.41428
C          1.28408         0.74035         1.21353
C          2.49721         1.46443         1.04652
C          3.73546         0.72556         0.87865
C          5.04433         1.46430         0.96115
C          6.20436         0.71115         0.36358
C          7.43604         1.43173         0.16559
C          8.65491         0.68174        -0.02068
C          9.91307         1.39198         0.08236
C         11.11540         0.58690         0.06669
C         -9.68388         2.72506        -0.96060
C         -8.50110         3.47074        -0.70968
C         -7.31048         2.78274        -0.29293
C         -6.10965         3.51321        -0.07899
C         -4.93269         2.82367         0.37868
C         -3.69424         3.56328         0.45979
C         -2.48977         2.92920         0.89019
C         -1.24626         3.57635         0.68194
C          0.03696         2.99165         1.08975
C          1.30640         3.57869         0.63952
C          2.49959         2.85971         0.74994
C          3.69199         3.45969         0.02563
C          5.00345         2.87216         0.43783
C          6.18929         3.54362         0.23724
C          7.45302         2.82455         0.23900
C          8.69897         3.54453         0.14521
C          9.91964         2.77907         0.15111
C         -8.48416         4.87273        -0.85665
C         -7.30251         5.60876        -0.66195
C         -6.09501         4.92101        -0.30801
C         -4.86703         5.64631        -0.22906
C         -3.68499         4.94035         0.06869
C         -2.39839         5.66222         0.03563
C         -1.20021         4.79302        -0.01675
C          0.03229         5.23552        -0.52264
C          1.29055         4.82057        -0.08663
C          2.48862         5.64024        -0.27038
C          3.70520         4.97192        -0.05677
C          4.94985         5.66859        -0.07913
C          6.19139         4.97085         0.01423
C          7.42999         5.66659        -0.01265
C          8.66602         4.93820         0.06115
C         -7.28599         7.03036        -0.81275
C         -6.11118         7.76193        -0.69397
C         -4.85788         7.08135        -0.46057
C         -3.67558         7.82807        -0.44413
C         -2.38526         7.15464        -0.22711
C         -1.17511         7.95713        -0.55076
C          0.03295         7.37013        -0.88444
C          1.29992         7.91189        -0.56464
C          2.47969         7.09640        -0.42353
C          3.71607         7.79826        -0.28165
C          4.94928         7.09229        -0.17136
C          6.20164         7.79286        -0.14177
C          7.40785         7.08356        -0.08809
C         -6.09731         9.20004        -0.81224
C         -4.94200         9.91967        -0.70564
C         -3.66750         9.26697        -0.52546
C         -2.48369        10.00386        -0.36801
C         -1.19304         9.37239        -0.34955
C          0.05229        10.03933        -0.30884
C          1.28905         9.33047        -0.32738
C          2.54732         9.97742        -0.19836
C          3.73317         9.24286        -0.23661
C          5.00550         9.92011        -0.17847
C          6.18344         9.23348        -0.16036
C        -10.94068        -0.76288        -0.87907
C         -9.78779        -1.47888        -0.41401
C         -8.57082        -0.75340        -0.13026
C         -7.42206        -1.42192         0.39179
C         -6.24088        -0.72055         0.63587
C         -5.11041        -1.37594         1.41368
C         -3.74657        -0.72885         1.17841
C         -2.53490        -1.40103         1.19464
C         -1.26349        -0.65304         1.20849
C          0.00050        -1.35560         1.16684
C          1.22753        -0.68395         1.14520
C          2.53593        -1.44280         1.23995
C          3.73528        -0.64481         0.79952
C          4.92667        -1.36376         0.40936
C          6.14153        -0.64393         0.14344
C          7.27091        -1.30938        -0.60890
C          8.60734        -0.68426        -0.27471
C          9.81725        -1.47025        -0.33524
C         11.06667        -0.76584        -0.09523
C         -9.81343        -2.87343        -0.32224
C         -8.68295        -3.60026         0.10936
C         -7.57276        -2.86709         0.82952
C         -6.26726        -3.63014         0.82932
C         -5.07981        -2.89964         1.30303
C         -3.75453        -3.62336         1.21820
C         -2.48445        -2.86336         1.10830
C         -1.29852        -3.54911         0.91549
C         -0.01261        -2.83656         1.09814
C          1.24922        -3.57538         0.79011
C          2.50722        -2.82334         0.64066
C          3.66916        -3.48892         0.31594
C          4.90734        -2.74157         0.22006
C          6.14385        -3.45179        -0.05900
C          7.28847        -2.81881        -0.51503
C          8.51443        -3.46807        -1.16527
C          9.78028        -2.82254        -0.61798
C         -8.62513        -4.98108        -0.03030
C         -7.42362        -5.70822         0.18529
C         -6.21535        -4.99066         0.57575
C         -4.95545        -5.72778         0.62315
C         -3.76847        -5.04809         0.84769
C         -2.48268        -5.75794         0.93356
C         -1.23315        -4.99657         0.75452
C         -0.06311        -5.67596         0.43138
C          1.15628        -4.88147         0.03645
C          2.46340        -5.64136         0.05906
C          3.66050        -4.93600         0.07458
C          4.92109        -5.64339         0.01933
C          6.07638        -4.86846         0.19172
C          7.83324        -5.88350        -0.57008
C          8.56142        -4.98487        -1.28827
C         -7.37973        -7.08123        -0.07700
C         -6.16997        -7.80804        -0.05460
C         -4.94482        -7.14667         0.28700
C         -3.74275        -7.86793         0.20575
C         -2.47292        -7.24543         0.60234
C         -1.21100        -7.85160         0.16443
C         -0.02339        -7.10244         0.18096
C          1.22612        -7.76114        -0.12206
C          2.46599        -7.06225        -0.09902
C          3.71595        -7.75309        -0.28536
C          4.96037        -7.06878        -0.22552
C          6.18306        -7.77779        -0.62018
C          7.43532        -7.22766        -0.90580
C         -6.14118        -9.18612        -0.42797
C         -4.95520        -9.87118        -0.53739
C         -3.71194        -9.22213        -0.25638
C         -2.47841        -9.88644        -0.42240
C         -1.23624        -9.21904        -0.26683
C         -0.00408        -9.86364        -0.52240
C          1.21044        -9.16665        -0.41749
C          2.44957        -9.83441        -0.64868
C          3.66224        -9.16636        -0.58061
C          4.89062        -9.86504        -0.85917
C          6.06904        -9.19374        -0.91175
O          3.51434         2.98897        -1.37795
H          4.16945         3.46878        -1.92904
O         -3.35963         1.29364         2.53568
O         -5.40407        -1.05813         2.79888
H         -4.93255        -1.72660         3.34773
O         -2.44540        -6.76694         1.99625
O          8.50030        -3.07350        -2.57841
H          8.08727        -2.17597        -2.64898
O          0.94536        -4.47800        -1.36315
H          0.99225        -5.28757        -1.91468
O          0.04965         2.47841         2.44405
O          2.75207        -1.67483         2.68035
H          2.05360        -2.31920         2.95913
O          7.00250        -0.94971        -2.03112
H          7.07361         0.02744        -2.09618
O         -4.45902        -3.44749         2.51902
O          0.77059        -3.53734         2.17633
O         -2.26936         6.63017         1.16986
O          7.25184        -5.44639         0.64894
O         -0.01962         6.15410        -1.56996
O          5.31423         1.58843         2.40568
H          5.17975         0.70332         2.80769
O         -7.98931        -2.80230         2.23598
H         -7.96354        -3.71404         2.59554
H         11.99796        -1.35173        -0.10053
H         12.08516         1.09075         0.19476
H         10.87990         3.31671         0.17430
H          9.60996         5.50282         0.02127
H          8.35885         7.63716        -0.08283
H          7.14177         9.77242        -0.13117
H          5.00609        11.02005        -0.16094
H          2.58825        11.07050        -0.08065
H          0.07605        11.13532        -0.21740
H         -2.54117        11.10231        -0.33237
H         -4.96621        11.01734        -0.77370
H         -7.05566         9.71668        -0.97053
H         -8.23144         7.54968        -1.03073
H         -9.40788         5.39594        -1.14518
H        -10.59238         3.25449        -1.28430
H        -11.80543         1.13026        -1.40047
H        -11.85984        -1.33044        -1.08598
H        -10.70105        -3.42210        -0.67368
H         -9.49707        -5.51763        -0.43587
H         -8.30701        -7.59801        -0.36705
H         -7.09221        -9.68736        -0.66044
H         -4.94712       -10.92368        -0.85533
H         -2.47791       -10.93723        -0.74764
H          0.00425       -10.92721        -0.80257
H          2.43654       -10.90769        -0.89088
H          4.84905       -10.94346        -1.06936
H          6.99227        -9.73256        -1.17189
H          8.15266        -7.86211        -1.45065
H          9.02851        -5.33622        -2.22084
H         10.72370        -3.38722        -0.67128
