         240
 CSIRO Nanostructure Databank - Neutral Graphene Oxide Data Set
C        -11.25315         0.58477        -0.33901
C        -10.39473         1.61376         0.24584
C         -8.62419         0.62472         1.00048
C         -7.45397         1.46122         0.81595
C         -6.19635         0.72779         0.83540
C         -4.93368         1.43319         1.28481
C         -3.67079         0.73558         0.76961
C         -2.45854         1.43534         0.57183
C         -1.20894         0.74622         0.13233
C          0.13111         1.50699         0.21205
C          1.47303         0.85568         0.37552
C          2.53071         1.50417         0.96611
C          3.75497         0.72193         1.32500
C          5.06476         1.46721         1.37609
C          6.32144         0.79555         0.79601
C          7.66055         1.47318         1.19952
C          8.77752         0.73149         0.46582
C          9.77723         1.39062        -0.27874
C         10.87273         0.64677        -0.89781
C         -9.95178         2.75637        -0.34842
C         -8.74393         3.49903         0.04358
C         -7.55245         2.83514         0.58402
C         -6.30593         3.64176         0.70792
C         -4.97785         2.94029         0.99906
C         -3.69011         3.61560         0.65780
C         -2.42082         2.85337         0.57199
C         -1.22319         3.58367         0.53260
C          0.05398         2.86655         0.90473
C          1.30036         3.71099         0.77073
C          2.64173         3.00152         0.72629
C          3.70718         3.69288         1.57616
C          5.06680         2.97819         1.48456
C          6.34535         3.73403         1.34829
C          7.63579         3.01039         0.94376
C          8.67258         3.63413         0.01564
C          9.68574         2.75425        -0.57208
C         -8.69256         4.81281        -0.41100
C         -7.51518         5.63677        -0.43289
C         -6.28114         5.03373         0.14108
C         -4.98838         5.56598        -0.39709
C         -3.70440         4.86490        -0.16090
C         -2.40597         5.64410        -0.36456
C         -1.21085         4.97852         0.29428
C         -0.03891         5.73306         0.41158
C          1.22576         5.07982         0.72661
C          2.46064         5.91317         0.90534
C          3.76045         5.21492         1.18952
C          5.06059         5.85845         0.80406
C          6.21601         5.20274         1.11306
C          7.86422         5.99286        -0.20394
C          8.47515         4.90725        -0.73214
C         -7.50311         6.92740        -0.90310
C         -6.25079         7.71401        -1.07233
C         -4.93159         7.00230        -0.82011
C         -3.73902         7.78604        -0.48626
C         -2.54846         7.09330         0.14070
C         -1.24651         7.81979        -0.12354
C         -0.06136         7.13146         0.02640
C          1.23706         7.71930        -0.46019
C          2.43546         7.37591         0.44274
C          3.71008         7.79334        -0.29043
C          5.03641         7.11376        -0.04344
C          6.26058         7.84050        -0.55370
C          7.48557         7.26209        -0.79542
C         -6.19807         9.18015        -0.97120
C         -5.00474         9.83566        -0.91696
C         -3.73865         9.15523        -0.69927
C         -2.48702         9.87922        -0.65488
C         -1.27385         9.22333        -0.49124
C         -0.00794         9.89794        -0.67841
C          1.18729         9.22206        -0.64883
C          2.45138         9.87045        -0.87456
C          3.65585         9.20705        -0.76950
C          4.89156         9.84508        -1.12306
C          6.08360         9.18670        -1.06134
C        -11.06960        -0.74335        -0.14766
C        -10.03328        -1.41042         0.76885
C         -8.69545        -0.69164         0.69748
C         -7.46661        -1.32533         0.11608
C         -6.19735        -0.62643         0.57098
C         -4.96120        -1.39053         0.59710
C         -3.73199        -0.68395         0.71342
C         -2.46255        -1.42911         0.76215
C         -1.27079        -0.73786         0.21161
C         -0.26122        -1.51893        -0.23044
C          1.65936        -0.51851        -0.04250
C          2.58233        -1.37622         0.45210
C          3.73430        -0.83800         1.25841
C          5.01001        -1.40605         0.55842
C          6.30093        -0.74931         1.10965
C          7.53835        -1.49453         0.62808
C          8.80489        -0.74331         0.56329
C         10.00184        -1.49754        -0.07329
C         10.99117        -0.69292        -0.81129
C         -9.90193        -2.88550         0.47434
C         -8.71275        -3.54076         0.27054
C         -7.44826        -2.82028         0.25790
C         -6.24353        -3.49549         0.20042
C         -5.00343        -2.80615         0.42999
C         -3.80359        -3.62586         0.60529
C         -2.47360        -2.94647         0.70139
C         -1.27071        -3.66920         0.25755
C          0.00721        -2.89043         0.34201
C          1.27226        -3.50127        -0.30889
C          2.48695        -2.85758         0.34781
C          3.74839        -3.65881         0.49071
C          5.04180        -2.92893         0.59477
C          6.21860        -3.59900         0.46167
C          7.48847        -2.85664         0.38782
C          8.64723        -3.57462        -0.13613
C          9.79581        -2.88794        -0.46782
C         -8.66097        -4.99894         0.21527
C         -7.49997        -5.67241        -0.05739
C         -6.27753        -4.86763        -0.44671
C         -5.01636        -5.67371        -0.43082
C         -3.78908        -5.10860         0.07228
C         -2.50574        -5.68657        -0.34011
C         -1.29125        -4.98483        -0.19826
C          0.00355        -5.64470        -0.55791
C          1.28664        -5.00426        -0.23957
C          2.47346        -5.72699        -0.22745
C          3.74583        -5.07101         0.03788
C          4.93322        -5.76768         0.01955
C          6.22758        -5.12304         0.50321
C          7.42532        -5.73919        -0.18496
C          8.54451        -4.98310        -0.44369
C         -7.40073        -7.11409        -0.06703
C         -6.27299        -7.79779        -0.45614
C         -5.09719        -7.04803        -1.06421
C         -3.77455        -7.82915        -1.01772
C         -2.49992        -7.08887        -0.79641
C         -1.26554        -7.85898        -0.42987
C          0.01535        -7.15093        -0.69275
C          1.27134        -7.88472        -0.50908
C          2.46846        -7.17469        -0.38438
C          3.72134        -7.87780        -0.40483
C          4.93408        -7.18016        -0.26761
C          6.19270        -7.86904        -0.43384
C          7.38030        -7.14030        -0.47059
C         -6.20644        -9.23973        -0.42141
C         -5.05530        -9.94740        -0.61868
C         -3.76550        -9.30534        -0.77774
C         -2.59557       -10.01000        -0.64967
C         -1.27570        -9.35805        -0.46352
C          0.01991       -10.02322        -0.66630
C          1.23383        -9.33026        -0.59419
C          2.50317       -10.00247        -0.67286
C          3.70718        -9.30970        -0.60039
C          4.98151        -9.98180        -0.71538
C          6.15926        -9.29272        -0.66197
O          3.03423         5.91756         2.26394
O         -7.54759        -1.11886        -1.34880
H         -7.06900        -1.86024        -1.78117
O          3.26428         3.57646         2.92732
H          4.05239         3.65997         3.50870
O          4.84714        -1.08439        -0.85845
H          5.45463        -1.65450        -1.37614
O          3.63802        -1.33050         2.58593
H          4.34929        -0.89877         3.11394
O          3.13709         3.10791        -0.64532
H          2.42230         2.83774        -1.26127
O         -9.79068         1.26748         1.47655
O         -3.92236        -4.73666         1.52445
O         -6.45598        -4.50725        -1.87825
H         -6.30157        -5.34438        -2.39476
O          0.73720        -0.94617        -1.00874
O          4.43006         1.02731         2.60389
O          6.27983         1.05084        -0.62491
H          5.54584         0.51066        -1.01631
O         -5.43683        -6.90057        -2.48507
H         -4.57160        -6.87509        -2.96338
O          2.82157        -3.49217         1.61658
O          2.29969         8.21996         1.60194
H          2.68519         7.72574         2.36476
O         -6.42381         4.83056         1.57624
O          0.32585        -2.69432         1.74073
H         -0.51958        -2.50482         2.22115
O         -0.03268         2.53236         2.32961
H          0.31880         3.28489         2.85181
O         -0.57719         1.37253        -1.04278
O         -4.90575         1.27823         2.72743
H         -4.41660         2.05626         3.08486
O         -2.78827         7.01245         1.57213
H         -2.76597         7.92056         1.93947
O        -10.55337        -1.31239         2.12102
H        -10.55887        -0.35314         2.34805
O          1.48497         7.10116        -1.74821
H          0.66345         7.15698        -2.28000
O          6.28074        -0.90975         2.53984
H          6.97465        -0.31986         2.92277
O          6.35079        -5.48857         1.91123
H          5.62081        -5.05030         2.39883
O         -2.29573        -2.22064         1.99911
O          7.87575         1.28355         2.61233
H          8.52168         1.96409         2.90583
O          1.31102        -3.23231        -1.73168
H          0.75846        -3.89796        -2.19424
O         -2.94352        -7.41559        -2.17342
O         -0.02001        -6.29944        -1.88702
O         -4.22392         3.69204         2.01685
O          7.42156         5.90367         1.12951
O         -2.11293         5.69435        -1.77439
H         -2.92921         5.40173        -2.24936
O          9.91885        -1.26617         1.36911
O          4.20019         6.81893        -1.24872
O         -5.42088         7.20432        -2.18826
O         -4.42698         4.65480        -1.42133
O          8.79887         3.67532         1.50543
O          5.87917         3.32499         2.67444
O         -1.30243        -8.54578         0.83777
H         11.79095        -1.22010        -1.35290
H         11.60425         1.22809        -1.47841
H         10.42033         3.20031        -1.25838
H          8.82724         4.92517        -1.77250
H          8.22146         7.81721        -1.39908
H          6.99309         9.70066        -1.40765
H          4.85754        10.87769        -1.50114
H          2.45042        10.93124        -1.17322
H         -0.01810        10.98277        -0.86899
H         -2.49421        10.95431        -0.88856
H         -4.99316        10.93617        -0.91666
H         -7.14150         9.74609        -0.96809
H         -8.44450         7.38255        -1.24962
H         -9.60063         5.23090        -0.87258
H        -10.46659         3.11194        -1.25430
H        -12.01463         0.91414        -1.06508
H        -11.74786        -1.42796        -0.68340
H        -10.82628        -3.48022         0.54809
H         -9.58479        -5.55821         0.43245
H         -8.27471        -7.68795         0.28247
H         -7.13527        -9.78296        -0.18858
H         -5.07466       -11.04461        -0.54134
H         -2.64784       -11.10323        -0.52205
H          0.03156       -11.11104        -0.83126
H          2.51546       -11.09633        -0.79383
H          4.98600       -11.07078        -0.87134
H          7.11485        -9.82537        -0.77769
H          8.31484        -7.64839        -0.75618
H          9.42355        -5.46475        -0.90057
H         10.58596        -3.39081        -1.04624
