         268
 CSIRO Nanostructure Databank - Neutral Graphene Oxide Data Set
C        -11.02133         0.98983         0.21244
C         -9.81163         1.80794        -0.04640
C         -8.52254         1.05763        -0.07657
C         -7.32941         1.72329         0.57821
C         -6.04140         0.96042         0.62280
C         -4.74393         1.67890         0.86952
C         -3.44712         0.92279         0.96075
C         -2.10530         1.63753         0.81489
C         -0.77052         0.84911         0.53777
C          0.01926         1.53920        -0.63894
C          1.31998         0.82087        -1.04570
C          2.65491         1.51001        -1.19793
C          3.93290         0.69880        -1.25235
C          5.23636         1.46713        -1.25295
C          6.51856         0.68705        -0.98311
C          7.60618         1.48085        -0.31036
C          8.46760         0.86519         0.77011
C          9.80646         1.48059         0.98583
C         10.84557         0.61025         1.53376
C         -9.75116         3.28738         0.12628
C         -8.56192         3.95421         0.26424
C         -7.39142         3.25200         0.93517
C         -6.01884         3.98211         0.78518
C         -4.74349         3.17995         0.70919
C         -3.46763         3.77798         0.18643
C         -2.15485         3.12238         0.56200
C         -0.88899         3.82435         0.10785
C          0.26757         3.02083        -0.36683
C          1.51083         3.68995        -0.89722
C          2.73602         2.86545        -0.49080
C          4.04171         3.67172        -0.61160
C          5.26235         2.97135        -1.16276
C          6.64099         3.68202        -1.14507
C          7.55011         2.99853        -0.10118
C          8.99241         3.58882        -0.14528
C          9.94455         2.82171         0.76963
C         -8.45810         5.36365        -0.04703
C         -7.27904         6.06801        -0.06661
C         -5.97734         5.48101         0.42854
C         -4.82550         5.94280        -0.50127
C         -3.50328         5.19570        -0.27714
C         -2.24662         6.00113        -0.17898
C         -0.92766         5.30414        -0.13508
C          0.14463         5.90065        -1.05183
C          1.51393         5.18275        -1.02917
C          2.75438         5.95337        -0.72727
C          4.01565         5.17045        -0.53623
C          5.30774         5.92054        -0.68715
C          6.59306         5.18576        -0.88212
C          7.85282         5.83288        -0.41135
C          8.90716         5.10411         0.02419
C         -7.20126         7.45897        -0.45806
C         -6.00692         8.14451        -0.49433
C         -4.74335         7.42257        -0.08771
C         -3.46084         8.13955        -0.43933
C         -2.29590         7.43518        -0.55298
C         -0.99152         8.13053        -0.45778
C          0.24499         7.41860        -0.92059
C          1.55470         8.14730        -0.86097
C          2.78928         7.31992        -0.71071
C          4.02583         8.04780        -0.28668
C          5.30294         7.29388        -0.07884
C          6.64130         7.98598         0.21393
C          7.86541         7.35576        -0.51138
C         -5.91345         9.54968        -0.80836
C         -4.73139        10.23447        -0.82487
C         -3.44676         9.59024        -0.60906
C         -2.25844        10.29498        -0.62299
C         -0.96370         9.63234        -0.37529
C          0.37448        10.29323        -0.44124
C          1.53877         9.59167        -0.45496
C          2.84747        10.26234        -0.04901
C          4.07750         9.52491        -0.62549
C          5.39871        10.15525        -0.24499
C          6.52945         9.48473         0.02094
C        -11.01764        -0.35664         0.24131
C         -9.88859        -1.24718        -0.25139
C         -8.53078        -0.46292        -0.26460
C         -7.20673        -1.17620        -0.23505
C         -5.94988        -0.44486         0.11806
C         -4.74890        -1.24691         0.48996
C         -3.43771        -0.60460         1.00368
C         -2.33658        -1.25959         0.14003
C         -0.95908        -0.62371         0.17703
C          0.06101        -1.32004        -0.39885
C          1.28855        -0.67620        -0.94347
C          2.57355        -1.46388        -0.92780
C          3.91413        -0.78721        -1.04176
C          5.11949        -1.43113        -0.39713
C          6.46304        -0.84076        -0.79790
C          7.70801        -1.66299        -0.52934
C          9.14932        -1.12639        -0.46538
C          9.97031        -1.63166         0.69809
C         10.88888        -0.74634         1.42087
C         -9.83314        -2.59738         0.49712
C         -8.99887        -3.61312         0.06636
C         -7.10028        -2.65036        -0.26813
C         -6.12551        -3.43526         0.27226
C         -4.85998        -2.75263         0.82545
C         -3.67363        -3.47769         0.09408
C         -2.34041        -2.78160         0.48451
C         -1.25492        -3.51693        -0.26144
C         -0.03267        -2.78723        -0.67751
C          1.24479        -3.58001        -0.87040
C          2.49228        -2.86795        -0.41892
C          3.69865        -3.58380         0.09804
C          5.01109        -2.82183         0.18255
C          6.27214        -3.62714         0.46118
C          7.59708        -3.00020         0.17537
C          8.91763        -3.83264         0.16636
C          9.90757        -2.97010         0.93794
C         -8.72304        -4.94153         0.52982
C         -7.46277        -5.59374         0.33122
C         -6.20125        -4.88966         0.24956
C         -4.99133        -5.64820         0.32120
C         -3.69805        -4.93865         0.51028
C         -2.40593        -5.69613         0.53769
C         -1.14895        -4.93988         0.20333
C          0.08277        -5.71561        -0.07716
C          1.23924        -5.06590        -0.76595
C          2.53952        -5.79793        -0.59740
C          3.75734        -5.07874        -0.11193
C          4.90943        -5.87089         0.42478
C          6.19588        -5.13234         0.61240
C          7.47537        -5.93450         0.21456
C          8.65223        -5.18832         0.76481
C         -7.41487        -7.02680         0.32410
C         -6.22130        -7.74175         0.22287
C         -4.97868        -7.04375         0.30341
C         -3.72300        -7.88205         0.47648
C         -2.39199        -7.16645         0.37396
C         -1.22380        -7.87632         0.27891
C          0.09844        -7.18321         0.27067
C          1.38088        -7.95841         0.26978
C          2.45941        -7.32335        -0.65112
C          3.83527        -7.90061        -0.48097
C          4.92900        -7.32498         0.08490
C          6.14657        -8.07595         0.45108
C          7.31694        -7.38698         0.63084
C         -6.17713        -9.19614         0.05020
C         -5.03598        -9.84628        -0.26699
C         -3.73974        -9.08721        -0.47288
C         -2.47230        -9.90559        -0.36420
C         -1.23462        -9.31980        -0.05647
C         -0.01522       -10.03397        -0.12924
C          1.20960        -9.49808         0.59303
C          2.50645       -10.31567         0.67471
C          3.73907       -10.03066         0.17957
C          5.03884       -10.37356         0.76042
C          6.08546        -9.50147         0.80912
O          1.17557        -4.41164        -2.06484
O         -3.76312        -8.48607         1.84206
O          1.77495        -1.34899        -2.13838
O          4.39837         7.55965         1.04852
O         -7.78863        -0.69943        -1.50231
O         -1.42189         5.95030         1.06090
O          6.96204         3.27292         1.17875
H          7.53010         2.90635         1.88907
O         -6.94602         0.97143         1.77641
O         -3.88624        -3.45428        -1.30852
H         -3.91060        -2.51113        -1.60788
O          7.05043        -2.97375         1.51643
O          7.70919         1.09832        -1.70205
O         -5.18754         3.77952         1.96301
O          1.78008         1.35952        -2.33230
H         -6.90728         3.11606         2.83659
O         -4.75763         7.30459         1.38460
O         -0.12094        -5.01674         1.22260
O          0.83392         7.96592        -2.14228
O         -3.06150        -5.26254         1.78348
O          0.18861         3.44801         1.03179
O          4.92065        -1.63342         1.02471
O          7.10155        -1.61320        -1.85379
O         -1.99581         2.60615         1.90120
O          5.42029        -5.54722         1.75781
O          9.36523        -3.98463        -1.20343
H          9.48181        -3.10046        -1.61411
O         -1.07643        -3.18900        -1.65856
O          3.56777        -5.36311        -1.54422
O         -0.91580         8.78294         0.84902
O         -2.67789        -1.08094        -1.25448
H         -2.02151        -1.59340        -1.79138
O          9.65546        -0.49790        -1.37292
O          1.61090         4.27786        -2.20284
O         -4.96211        -0.78576        -0.88916
O          3.87786        -9.21121        -0.96075
O          7.98231         0.07322         1.56921
O         -5.19473         5.83456        -1.87214
H         -4.75008         5.04076        -2.24871
O          4.19988         4.35207         0.67788
O          3.97411         9.56027        -2.07208
H          4.26980        10.43879        -2.38853
O         -8.13001        -3.25309        -1.00491
O          5.11613         2.31915        -2.45267
O         -7.72476         3.32709         2.32889
O         -5.68695         6.19622         1.69072
O         -9.05122         1.59739        -1.32097
O          2.93615        10.29412         1.37885
H          3.01152         9.37520         1.71276
O         -3.42688         4.08211        -1.24739
O         -4.73640        -2.94721         2.17730
O          7.46142        -5.90495        -1.23038
H          8.24986        -5.40090        -1.54681
O          7.90552         7.75102        -1.87946
H          7.24045         7.21474        -2.37228
O          9.61599         3.36096        -1.42570
H          8.92535         3.45209        -2.13173
O        -10.21872        -1.55276        -1.61805
H         -9.36829        -1.58239        -2.11951
O         -0.85970         1.46366        -1.77715
H         -0.31830         1.58587        -2.58947
O          1.02373        -7.23350         1.45807
O          5.93277         5.90209        -2.00036
O          4.07590        -0.24552        -2.36858
O         -4.36200        -7.52929         2.74858
H         -3.76031        -6.73375         2.69147
O          2.69766        -3.07261         1.01813
O         -4.16041         1.36211         2.16398
O          7.22446         3.57173        -2.44863
H          6.71868         2.88432        -2.95271
O          0.02273         0.86800         1.71707
H         -0.10388         1.74539         2.15115
O         -0.43930         5.66846        -2.35407
H          0.14737         6.09261        -3.01947
O          2.61160         2.46673         0.88649
H          2.87870         3.22551         1.45663
O         -2.07856        -2.99405         1.85730
H         -2.95470        -2.97351         2.34355
O         -3.74221        -8.53693        -1.82609
H         -3.81759        -9.28038        -2.46013
O          1.98133        -7.64367        -1.97721
H          2.56971        -7.19546        -2.62323
O          6.92174         7.76678         1.61585
H          6.08406         7.91977         2.10828
O         -3.18362        -0.91478         2.36696
H         -3.75230        -0.33586         2.92273
O          0.74166        -9.60187         1.96648
H          0.52783        -8.68743         2.28509
H         11.71583        -1.26293         1.93534
H         11.67590         1.10661         2.06089
H         10.91131         3.30277         0.99411
H          9.82141         5.62896         0.34561
H          8.78591         7.75372        -0.01674
H          7.44673        10.05757         0.22913
H          5.43254        11.25629        -0.29410
H          2.84879        11.32568        -0.40054
H          0.40920        11.37185        -0.21671
H         -2.26939        11.37561        -0.83157
H         -4.73428        11.31518        -1.03013
H         -6.85023        10.08936        -1.01520
H         -8.13421         7.97529        -0.73305
H         -9.37815         5.86833        -0.38238
H        -10.63571         3.84987        -0.21653
H        -11.93498         1.52962         0.50651
H        -11.95562        -0.87501         0.49510
H        -10.55880        -2.78867         1.30274
H         -9.53659        -5.52937         0.98432
H         -8.36721        -7.57877         0.34220
H         -7.12041        -9.75522         0.14793
H         -5.04555       -10.93518        -0.43076
H         -2.50149       -10.96497        -0.66668
H         -0.05082       -11.09860        -0.40978
H          2.49327       -10.99833         1.53987
H          5.16379       -11.36472         1.22455
H          7.01591        -9.88156         1.26348
H          8.21628        -7.92858         0.96230
H          8.82614        -5.28231         1.84977
H         10.52905        -3.42830         1.72376
