         314
 CSIRO Nanostructure Databank - Neutral Graphene Oxide Data Set
C         31.12897        56.92067        -2.23964
C         31.21975        58.30148        -2.63358
C         30.25957        58.87512        -3.48275
C         31.47124        60.97679        -3.53055
C         30.38408        60.20776        -3.91171
C         32.91296        52.87338        -0.15755
C         32.96454        54.29033        -0.31424
C         32.00256        54.94848        -1.06832
C         33.05857        57.21101        -0.72737
C         32.02329        56.35005        -1.35411
C         33.32203        58.54381        -1.33364
C         32.33866        59.09029        -2.21108
C         33.62647        61.17958        -2.32625
C         32.48170        60.43321        -2.68442
C         35.27643        48.59887         0.51621
C         35.24749        49.99382         0.54089
C         34.06282        50.72891         0.28457
C         35.32536        52.93336         0.03469
C         34.04754        52.13340         0.22130
C         35.30714        54.31610         0.70359
C         33.96274        55.05930         0.54461
C         35.40731        57.28794         0.32426
C         34.08813        56.56310         0.16525
C         35.54817        58.70153        -0.19918
C         34.45200        59.29035        -0.99633
C         35.85235        61.32395        -1.27358
C         34.64758        60.61228        -1.53709
C         37.69469        44.30908         0.71216
C         37.70374        45.70407         0.82428
C         36.47889        46.45627         0.75210
C         37.77586        48.54969         0.73200
C         36.47400        47.83931         0.70092
C         37.79193        50.04022         0.82610
C         36.45520        50.75860         1.05422
C         37.89220        52.86417         0.76016
C         36.63032        52.15855         0.36511
C         37.92431        54.33550         0.80755
C         36.60882        55.03796         0.82803
C         37.99842        57.12300         0.32827
C         36.65928        56.46525         0.39477
C         38.08044        58.56379        -0.05933
C         36.88297        59.31275        -0.37014
C         38.20294        61.40419        -0.42578
C         36.99373        60.68170        -0.72241
C         40.10542        40.07538        -0.08607
C         40.09840        41.47040         0.14070
C         38.89684        42.17495         0.39888
C         40.15985        44.26060         0.72768
C         38.90338        43.56753         0.61542
C         40.15588        45.63359         1.05635
C         38.95963        46.38057         1.01803
C         40.17732        48.51126         1.38698
C         39.00934        47.81890         1.09342
C         40.21174        49.94965         1.53642
C         39.00752        50.72508         1.33635
C         40.12822        52.86340         1.90462
C         38.98929        52.10549         1.40334
C         40.26048        54.29440         1.60684
C         39.09817        55.01243         1.10045
C         40.26245        57.19455         1.38694
C         39.16700        56.46494         0.97190
C         40.27815        58.65750         1.19642
C         39.35930        59.33410         0.25890
C         40.40496        61.54785         0.73513
C         39.29642        60.81671         0.21732
C         42.54830        35.82697        -0.41370
C         42.53971        37.23025        -0.55713
C         41.33485        37.95387        -0.34980
C         42.53172        40.07768        -0.57890
C         41.31011        39.36213        -0.35633
C         42.49964        41.55466        -0.54285
C         41.32699        42.21044         0.05523
C         42.63834        44.28198         0.36883
C         41.38294        43.57247         0.39368
C         42.70315        45.60318         1.01920
C         41.42421        46.28978         1.43691
C         42.70332        48.50110         1.42807
C         41.42531        47.77034         1.82016
C         42.69894        49.90220         1.55658
C         41.44219        50.59943         1.75098
C         42.71290        52.79374         1.97693
C         41.47679        52.02433         2.07571
C         42.66540        54.18841         2.09919
C         41.45452        54.94790         1.89558
C         42.72216        57.12064         2.31936
C         41.57978        56.43719         1.58336
C         42.81590        58.45743         2.63891
C         41.05460        59.53245         1.92107
C         42.65099        61.41902         1.86070
C         41.37241        60.88726         1.52343
C         45.08967        33.03707        -0.02983
C         43.87004        33.67003        -0.06006
C         45.04757        35.73990        -0.98536
C         43.74072        35.01050        -0.62922
C         45.01284        37.23810        -1.07889
C         43.75310        37.96933        -0.79317
C         45.02525        40.14576        -0.65240
C         43.74212        39.37752        -0.75914
C         45.06595        41.62100        -1.06743
C         43.77081        42.35862        -0.72123
C         45.08575        44.35767         0.07595
C         43.82834        43.69696        -0.08905
C         45.12026        45.72878         0.50034
C         43.93277        46.39876         0.87894
C         45.14239        48.53416         1.03925
C         43.91730        47.80229         1.13891
C         45.14578        49.94743         1.24713
C         43.92651        50.64385         1.49189
C         45.16513        52.75666         1.63634
C         43.94761        52.06879         1.70827
C         45.22474        54.17635         2.04756
C         43.95052        54.89919         2.34113
C         45.23247        57.15292         2.03566
C         44.00296        56.39323         2.36468
C         45.17800        58.58550         2.03470
C         43.96638        59.26787         2.36516
C         45.08397        61.41120         1.96711
C         43.85866        60.69688         2.14056
C         46.30233        33.71047        -0.32567
C         47.53891        35.81017        -0.64454
C         46.32835        35.07462        -0.64883
C         47.59040        37.21285        -0.79544
C         46.31970        37.95797        -1.00180
C         47.60079        40.11468        -0.86515
C         46.32479        39.40909        -0.65930
C         47.57110        41.57141        -0.84568
C         46.31983        42.30521        -0.56439
C         47.56509        44.33964         0.10369
C         46.32832        43.65596        -0.17310
C         47.59761        45.71849         0.41344
C         46.36499        46.43859         0.54851
C         47.61533        48.54315         0.77513
C         46.37158        47.83708         0.79581
C         47.60510        49.98538         0.87444
C         46.38239        50.66535         1.14939
C         47.58568        52.80796         1.08005
C         46.38376        52.08186         1.30208
C         47.50864        54.28650         0.94709
C         46.43593        54.99951         1.68962
C         47.51797        57.22743         1.15015
C         46.38558        56.48327         1.61804
C         47.47465        58.64265         1.19223
C         46.33577        59.32356         1.66101
C         47.52894        61.49325         1.52504
C         46.31666        60.77281         1.73215
C         48.77504        37.94806        -0.73869
C         50.05872        40.06078        -0.62386
C         48.81143        39.38708        -0.80190
C         50.13645        41.44341        -0.38491
C         48.90616        42.25591        -0.56029
C         50.12808        44.21650         0.47014
C         48.82207        43.55858         0.14786
C         50.11235        45.68848         0.72068
C         48.83576        46.42427         0.63559
C         50.14184        48.59842         0.91090
C         48.83788        47.82600         0.71815
C         50.03829        49.99168         0.30127
C         48.79210        50.72717         0.66967
C         50.03541        52.89550         0.55588
C         48.77202        52.13212         0.74653
C         50.00189        54.39383         0.47004
C         48.69320        55.08888         0.54670
C         49.86361        57.24270         0.31303
C         48.71476        56.55924         0.70374
C         49.84055        58.71190         0.20778
C         48.60269        59.43661         0.66826
C         49.94079        61.50495         0.90880
C         48.70576        60.86085         1.06444
C         51.34139        42.11789        -0.11348
C         52.57305        44.25325        -0.02715
C         51.39966        43.53745         0.08653
C         52.56598        45.74937        -0.20205
C         51.40879        46.43715         0.49625
C         52.62411        48.58773         0.31334
C         51.35390        47.87716         0.37833
C         52.60562        50.07305         0.00949
C         51.24483        50.73830        -0.19429
C         52.09610        53.04538        -0.72466
C         51.15839        52.23687        -0.15106
C         52.28591        54.46431        -0.52219
C         51.11559        55.17643        -0.10396
C         52.23878        57.31154        -0.63487
C         51.05888        56.55735        -0.09954
C         52.29863        58.73984        -0.16418
C         51.13271        59.42549         0.18015
C         52.36477        61.51305         0.40307
C         51.14154        60.83039         0.49594
C         53.87243        46.47392         0.04481
C         55.13816        48.60734         0.15323
C         53.90191        47.83666         0.16139
C         55.15853        49.96755        -0.06167
C         53.92349        50.66077        -0.36164
C         55.01138        52.90049        -0.32152
C         54.00209        51.96257        -0.79740
C         54.83723        54.40168        -0.42409
C         53.52873        55.11508        -0.63257
C         54.72971        57.28990        -0.69228
C         53.54889        56.55755        -0.56687
C         54.75245        58.72587        -0.53232
C         53.54626        59.42519        -0.20890
C         54.78033        61.54118        -0.09065
C         53.56415        60.84056         0.04845
C         56.46048        50.70989        -0.38933
C         57.52275        53.10510        -0.53536
C         56.38491        52.23949        -0.18612
C         57.39731        54.46183        -0.76486
C         56.10805        55.18924        -0.58326
C         57.25688        57.36800        -1.03012
C         55.97423        56.58409        -1.17947
C         57.21968        58.77213        -0.89000
C         55.97400        59.44574        -0.63882
C         57.17573        61.60662        -0.59492
C         55.97450        60.87572        -0.44196
C         58.53327        55.26708        -1.10456
C         59.79975        57.39419        -1.26570
C         58.48267        56.65739        -1.14995
C         59.67879        58.89811        -1.24420
C         58.43720        59.53558        -0.99116
C         59.59386        61.71371        -1.07443
C         58.39500        60.96490        -0.88991
C         60.82739        59.66329        -1.43635
C         60.78223        61.07063        -1.35791
O         45.69380        37.71426        -2.30686
O         37.64021        52.27689        -0.60779
O         50.99558        46.01782         1.85741
O         40.63153        52.43393         3.18594
O         37.43610        56.42493        -0.85268
O         49.39165        43.47597         1.50359
O         52.71237        49.61463         1.39047
O         35.32500        58.39525         1.25776
O         44.02105        55.59254         3.63163
O         42.18608        45.51888         2.42665
O         55.57909        52.53417         0.98089
O         42.83109        42.25031        -1.83934
O         53.00081        52.45026        -1.62224
O         55.51447        55.04549         0.72531
O         50.39208        53.71617         1.72658
O         51.95013        57.37614        -2.17056
O         37.95595        49.41930        -0.46819
O         45.68062        39.81944         0.62270
O         36.28054        51.01337         2.38971
O         48.38781        42.24605        -1.89464
O         35.29810        53.21355        -1.32353
O         44.28075        35.09493        -2.01919
O         48.85590        59.21262        -0.76870
O         39.17651        58.73129        -1.04412
O         47.68273        54.68657        -0.46122
O         41.66335        59.10857         3.09400
O         46.27709        54.44617         3.03359
O         35.86330        54.59298         2.02539
O         32.98158        57.30278         0.73933
O         50.35800        50.05474        -1.13815
O         45.20403        41.60810        -2.51231
H         44.31067        41.79238        -2.88953
O         56.81960        50.42170        -1.75059
H         56.03648        50.55948        -2.32220
O         55.76959        56.38875        -2.62452
H         54.99929        56.93532        -2.90310
O         53.08028        57.99569        -2.80768
H         52.82002        58.94883        -2.85266
O         52.25347        45.96240        -1.63055
H         52.97559        45.56167        -2.15942
O         60.49825        56.96458        -2.44673
H         59.94468        57.18392        -3.22404
O         41.39794        47.82053         3.27813
H         41.92719        47.05102         3.59360
O         42.14059        56.43463         0.20482
H         41.81939        57.23428        -0.26634
O         50.31262        48.75306         2.34578
H         50.56010        47.86697         2.70046
O         33.34356        55.01944         1.84694
H         34.04198        55.20644         2.51478
H         30.33614        56.30016        -2.68474
H         29.40082        58.27283        -3.81177
H         31.57069        62.01262        -3.88510
H         29.61449        60.63659        -4.56855
H         31.96735        52.35042        -0.38196
H         31.23830        54.34284        -1.58173
H         33.74852        62.20134        -2.71498
H         34.34236        48.04726         0.31941
H         33.13306        50.17737         0.06234
H         35.93109        62.37229        -1.59644
H         36.73552        43.77982         0.61329
H         35.52946        45.90370         0.68792
H         38.19318        62.49474        -0.57004
H         39.16578        39.51250         0.01112
H         37.93948        41.63414         0.37477
H         40.51581        62.61453         0.49187
H         41.63056        35.32788        -0.06809
H         40.40652        37.39920        -0.14997
H         42.80612        62.47770         1.59127
H         45.14810        32.00383         0.34135
H         42.97543        33.17933         0.34938
H         45.04059        62.50899         1.89541
H         47.25405        33.18567        -0.15989
H         48.48004        35.26262        -0.48196
H         47.54191        62.57722         1.71511
H         49.72761        37.41358        -0.60358
H         50.97079        39.45336        -0.53106
H         50.01661        62.57440         1.15812
H         52.28698        41.55984        -0.18670
H         53.50148        43.71484        -0.27675
H         52.40228        62.59319         0.60786
H         54.81376        45.90984        -0.04624
H         56.08718        48.05273         0.20454
H         54.80038        62.62837         0.07516
H         57.28891        50.31337         0.24965
H         58.49008        52.62059        -0.73862
H         57.15563        62.69990        -0.47463
H         59.50939        54.77166        -1.21546
H         60.44815        57.08794        -0.39866
H         59.55559        62.80958        -0.99560
H         61.77950        59.15700        -1.64795
H         61.70273        61.65139        -1.50891
