         424
 CSIRO Nanostructure Databank - Neutral Graphene Oxide Data Set
C          1.27265         3.29741         0.64926
C          0.06017         3.94696         0.53675
C          1.18313         6.11275         0.42978
C          0.01575         5.34986         0.40510
C          1.15182         7.59826         0.11487
C         -0.09724         8.35061         0.54443
C          1.08626        10.50117         0.41321
C         -0.09153         9.70607         0.66997
C          1.09836        11.91882         0.35165
C         -0.10230        12.65459         0.33075
C          1.05371        14.80188         0.27393
C         -0.10482        14.06009         0.20664
C          1.02758        16.24633        -0.03556
C         -0.18145        17.04705         0.19111
C          1.09123        19.15576         0.10756
C         -0.14775        18.40274         0.15062
C          1.06070        20.60435         0.15125
C         -0.10273        21.36377         0.32476
C          1.10792        23.50167         0.06386
C         -0.09066        22.75732         0.23526
C          1.10773        24.94579        -0.03962
C         -0.08630        25.70238        -0.11986
C          1.16542        27.77254        -0.45693
C         -0.06043        27.06492        -0.35847
C          1.22000        29.16730        -0.91639
C          0.09010        29.71735        -1.55697
C          1.41359        31.61878        -2.22966
C          0.20580        30.91121        -2.25302
C          1.46157        33.89292        -2.34552
C          0.25222        34.62738        -2.38282
C          1.26947        36.41723        -1.11314
C          0.12706        35.81869        -1.66480
C          1.23560        37.66698        -0.45697
C          3.73282         3.36924         0.73250
C          2.48964         4.03806         0.65730
C          3.68695         6.21322         0.62035
C          2.44307         5.46698         0.56372
C          3.67652         7.64095         0.57239
C          2.35445         8.34364         0.71537
C          3.63264        10.54247         0.15024
C          2.32665         9.76615         0.18838
C          3.57602        12.00068         0.35385
C          2.37074        12.64986         0.37673
C          3.61686        14.87281         0.36214
C          2.33527        14.13101         0.72331
C          3.61512        16.27923         0.21602
C          2.35932        17.01938        -0.04672
C          3.57043        19.18438         0.55199
C          2.30620        18.46611         0.14864
C          3.61463        20.58851        -0.01174
C          2.30996        21.33750        -0.10993
C          3.58555        23.49498         0.00377
C          2.33896        22.80555        -0.01331
C          3.59153        24.91658        -0.03140
C          2.35152        25.63860        -0.10278
C          3.62435        27.78725        -0.12066
C          2.35488        27.05598        -0.23854
C          3.64956        29.28097        -0.37549
C          2.42864        29.91257        -0.89622
C          3.73626        32.04931        -1.24921
C          2.53029        31.21836        -1.46285
C          3.75043        33.48812        -1.31186
C          2.59128        34.30158        -1.62657
C          3.75812        36.34079        -0.67987
C          2.60446        35.80557        -1.45724
C          3.67695        37.69693        -0.15538
C          2.39004        38.30228        -0.02549
C          6.19955         3.41408         0.82201
C          4.94754         4.08743         0.77368
C          6.15682         6.27099         1.09709
C          4.90524         5.51644         0.75366
C          6.15350         7.70493         0.65138
C          4.88631         8.40186         0.55384
C          6.12924        10.55327         0.11660
C          4.86566         9.80772         0.42732
C          6.11844        12.02377         0.43649
C          4.83584        12.71828         0.80504
C          6.07850        14.87621         0.30205
C          4.83745        14.18319         0.43927
C          6.07799        16.29825         0.22682
C          4.83818        17.00726         0.22664
C          6.05543        19.15508         0.22947
C          4.84448        18.43398         0.24710
C          6.04719        20.60119         0.30497
C          4.86864        21.34491         0.19346
C          6.05174        23.51161         0.16244
C          4.83853        22.77617         0.11708
C          6.08350        24.90638        -0.02984
C          4.84049        25.63618        -0.11609
C          6.12591        27.71840        -0.66415
C          4.86992        27.02709        -0.21329
C          6.13035        29.22598        -0.52416
C          4.94576        29.94619        -0.64510
C          6.17040        32.06988        -0.68495
C          4.93711        31.36925        -0.85961
C          6.16719        33.49862        -0.68502
C          4.95699        34.19352        -0.93345
C          6.21938        36.41389        -0.58773
C          4.93399        35.62952        -0.68647
C          6.10969        37.73128         0.14955
C          4.83291        38.33784         0.29016
C          8.66480         3.42984         0.65012
C          7.43203         4.11788         0.74934
C          8.63497         6.26781         0.61843
C          7.43044         5.54745         0.75791
C          8.62798         7.71088         0.60726
C          7.37077         8.38394         0.60261
C          8.64454        10.61776         0.58995
C          7.35248         9.85912         0.65248
C          8.59254        12.05009         0.26530
C          7.32790        12.72999         0.33962
C          8.54671        14.87926         0.09785
C          7.32456        14.17248         0.28036
C          8.52583        16.29658         0.04971
C          7.31599        17.01344         0.16816
C          8.54436        19.16749         0.28784
C          7.31152        18.45879         0.21020
C          8.59201        20.56223         0.35056
C          7.32168        21.29790         0.51881
C          8.58008        23.52406         0.25011
C          7.31055        22.80781         0.45555
C          8.56954        24.88777         0.16797
C          7.33039        25.63435         0.02373
C          8.61511        27.74580        -0.19573
C          7.36974        27.01766        -0.18448
C          8.60350        29.18657        -0.30642
C          7.38212        29.91102        -0.45558
C          8.59539        32.03887        -0.16625
C          7.38144        31.34229        -0.43715
C          8.58156        33.47465        -0.05392
C          7.38569        34.20453        -0.31906
C          8.57587        36.29257         0.22067
C          7.40856        35.60604        -0.16786
C          8.55326        37.73237         0.43036
C          7.27575        38.38511         0.50550
C         11.12641         3.44608         0.44184
C          9.88372         4.12937         0.51976
C         11.08441         6.28854         0.28283
C          9.86860         5.56505         0.47563
C         11.07912         7.71893         0.25345
C          9.85427         8.44042         0.44564
C         11.08079        10.57585         0.11724
C          9.88429         9.85877         0.39939
C         11.05977        12.01612         0.00381
C          9.80933        12.74474         0.07459
C         11.03955        14.87999        -0.13476
C          9.79646        14.16629        -0.02044
C         11.05750        16.29373        -0.13060
C          9.77522        17.06945        -0.28942
C         11.09292        19.16022         0.20256
C          9.82219        18.38102         0.47876
C         11.05423        20.58956         0.27296
C          9.83692        21.27274         0.32252
C         11.10531        23.49530         0.05399
C          9.81458        22.72827        -0.09638
C         11.08084        24.86632         0.00383
C          9.85299        25.63867         0.39786
C         11.07937        27.76827        -0.06254
C          9.83332        27.06770        -0.06556
C         11.06305        29.19431         0.00159
C          9.82533        29.89270        -0.12342
C         11.02302        31.98518         0.34460
C          9.81128        31.31649        -0.00713
C         10.94854        33.39922         0.69763
C          9.75460        34.16642         0.34087
C         11.02635        36.30084         0.61033
C          9.78216        35.57708         0.44176
C         11.00749        37.74585         0.62146
C          9.74240        38.41927         0.62452
C         13.57566         3.46358         0.21163
C         12.33077         4.13720         0.21973
C         13.49128         6.29556        -0.19294
C         12.29767         5.58036         0.07128
C         13.50356         7.69019        -0.13590
C         12.29749         8.42680         0.05983
C         13.52460        10.57766        -0.29552
C         12.30265         9.86274        -0.02011
C         13.50350        12.00571        -0.38522
C         12.27184        12.71988        -0.19918
C         13.49028        14.88493        -0.34315
C         12.27319        14.16031        -0.21605
C         13.48577        16.29492        -0.31926
C         12.27318        17.01058        -0.16338
C         13.55090        19.18657        -0.08973
C         12.27884        18.46801        -0.03551
C         13.58273        20.58932         0.07789
C         12.34788        21.34125         0.48885
C         13.57581        23.45964        -0.04442
C         12.35454        22.77958         0.03458
C         13.59569        24.89818        -0.15597
C         12.30537        25.61450        -0.42834
C         13.53942        27.76574         0.04706
C         12.31066        27.07246        -0.06647
C         13.52386        29.18731         0.20710
C         12.28852        29.89194         0.19732
C         13.50030        32.02459         0.58611
C         12.25246        31.30709         0.41268
C         13.51632        33.43040         0.62996
C         12.29111        34.17403         0.84099
C         13.49354        36.34340         0.58631
C         12.25457        35.63122         0.64780
C         13.46957        37.78587         0.63067
C         12.21259        38.45229         0.66943
C         15.98024         3.44932        -0.25076
C         14.78313         4.11794        -0.15677
C         15.98348         6.29899        -0.64265
C         14.68760         5.52588        -0.69533
C         15.97853         7.66647        -0.61836
C         14.81496         8.42365        -0.03967
C         15.95701        10.57051        -0.68118
C         14.74487         9.87437        -0.43779
C         15.92293        11.99518        -0.79434
C         14.72302        12.71445        -0.63372
C         15.94152        14.86370        -0.58327
C         14.74549        14.16716        -0.55803
C         15.98029        16.30100        -0.11257
C         14.76048        17.03472        -0.66375
C         16.00677        19.16359        -0.16562
C         14.76745        18.48987        -0.26952
C         16.02543        20.55989         0.02084
C         14.81292        21.28656         0.07503
C         16.04749        23.43121        -0.04969
C         14.82876        22.74170         0.05816
C         16.06254        24.89468        -0.43870
C         14.78116        25.62169        -0.13678
C         16.01730        27.75571         0.21825
C         14.78823        27.04790         0.00996
C         15.98609        29.14772         0.42361
C         14.75799        29.90023         0.39066
C         15.97406        32.03690         1.04890
C         14.73267        31.29944         0.58597
C         16.01153        33.50860         0.69906
C         14.75799        34.17620         0.21172
C         15.94360        36.36412         0.56057
C         14.72158        35.65541         0.50798
C         15.92500        37.80623         0.61183
C         14.68739        38.48830         0.62579
C         18.46848         3.53053        -0.15601
C         17.22197         4.05849        -0.84341
C         18.42673         6.25370        -0.90918
C         17.22169         5.57615        -0.83471
C         18.46971         7.68780        -0.92545
C         17.17150         8.41030        -1.15218
C         18.43736        10.56020        -0.90898
C         17.19769         9.87375        -0.82809
C         18.45557        11.98646        -0.99117
C         17.17091        12.68863        -1.12435
C         18.47602        14.90112        -0.84602
C         17.17862        14.21942        -1.00963
C         18.48584        16.31664        -0.66947
C         17.26537        17.03924        -0.42972
C         18.50676        19.16125        -0.42973
C         17.26746        18.42530        -0.32496
C         18.53300        20.56881        -0.23907
C         17.31772        21.27208         0.31612
C         18.50669        23.45392        -0.10334
C         17.28337        22.74509        -0.02061
C         18.52013        24.90134        -0.02851
C         17.31163        25.62342        -0.01843
C         18.52258        27.71149         0.34652
C         17.29326        27.03178         0.20463
C         18.55401        29.14612         0.68184
C         17.22567        29.87507         0.75242
C         18.51807        32.03652         1.01704
C         17.23222        31.37240         0.48372
C         18.48099        33.54616         0.83598
C         17.20272        34.21445         0.70647
C         18.40504        36.38445         0.67044
C         17.19250        35.66712         0.59865
C         18.38040        37.82565         0.64493
C         17.15432        38.50661         0.62195
C         19.63090         4.18289        -0.25470
C         20.93279         6.27446        -0.78318
C         19.70280         5.45609        -1.06595
C         20.90747         7.62205        -0.72418
C         19.67250         8.38524        -0.86600
C         20.87629        10.57645        -0.99170
C         19.67834         9.83367        -0.92326
C         20.87550        11.96267        -1.03350
C         19.66654        12.70589        -1.03911
C         20.88986        14.90168        -1.06261
C         19.67244        14.17325        -1.00746
C         20.90509        16.27969        -0.99222
C         19.71533        17.02375        -0.78987
C         20.91281        19.21491        -0.85458
C         19.72066        18.46515        -0.69610
C         20.91513        20.58791        -0.72270
C         19.73241        21.28862        -0.37216
C         20.94805        23.45470        -0.10340
C         19.74721        22.74052        -0.17889
C         20.96421        24.84665         0.03094
C         19.77688        25.59015         0.05990
C         20.95379        27.79186         0.10331
C         19.77310        27.03686         0.17313
C         20.94274        29.20729         0.16475
C         19.79933        29.91323         0.46243
C         20.98144        32.15940         0.90910
C         19.77257        31.43149         0.36368
C         20.91378        33.49470         1.08589
C         19.67018        34.24605         0.88474
C         20.84303        36.45111         0.81338
C         19.66731        35.70069         0.79159
C         20.81371        37.86257         0.74432
C         19.61712        38.54124         0.67385
O          7.91769        10.36436         1.88817
O         17.07323        13.54386        -2.31248
O          1.49134        32.71105        -3.09824
O         17.86421        29.43667         1.97582
O          2.97324        10.02839        -1.08590
O          3.02642        20.78366        -1.31580
O          7.30974        22.10806         1.76359
O          3.58664        28.77770         1.00513
O          1.71173        16.56610        -1.29312
O         11.51392        33.72542         2.00422
O         14.81398        34.06481        -1.26750
H         15.28332        33.22608        -1.47691
O          1.25896         7.70154        -1.32868
H          0.51560         7.20394        -1.72720
O          2.30334        14.18666         2.19394
H          3.07938        13.65536         2.50752
O         19.76422         5.03464        -2.47871
H         19.74815         5.85154        -3.02248
O         19.73786        31.72763        -1.07521
H         20.56616        31.38635        -1.47378
O         14.87697        16.99658        -2.11602
H         14.09425        17.44771        -2.49580
O          2.88432        36.32176        -2.83876
H          3.70264        35.87395        -3.14643
O          4.74046        12.67540         2.29904
H          5.62085        12.92860         2.65327
O         12.20945        25.59722        -1.92419
H         13.08811        25.87045        -2.26963
O          3.52121        19.36462         2.01100
H          3.66703        18.49013         2.42970
O         14.45229         5.35786        -2.13724
H         15.18020         4.79069        -2.47992
O          2.13842         8.46982         2.15207
H          2.29080         7.59262         2.56296
O          9.68551        22.59720        -1.57411
H          9.95568        23.45191        -1.97616
O          9.86639        18.03481         1.89576
H          9.81355        18.86697         2.41159
O         18.67070        31.80111         2.42805
H         17.77973        31.84651         2.84865
O         17.10322        31.56362        -0.94546
H         18.00812        31.58899        -1.34509
O          6.25899        10.43502        -1.35482
H          5.37733        10.61448        -1.74950
O          6.48921        36.79311        -1.99526
H          5.77590        37.41098        -2.26566
O         17.46559        21.20195         1.78615
H         18.26396        21.72203         2.02050
O         15.10581         8.45704         1.41721
H         14.36713         8.93937         1.84726
O          6.12615        27.52593        -2.14628
H          6.25563        26.56724        -2.31390
O         15.84266        16.29746         1.33754
H         16.67744        15.96354         1.72637
O         16.12116        24.88480        -1.92442
H         16.94462        24.41268        -2.17487
O         12.44398        21.43158         1.96834
H         12.75929        20.56295         2.29823
O         15.98337        31.92269         2.50461
H         15.14296        32.29688         2.84471
O         17.28081         3.64911        -2.25022
H         18.15316         3.97660        -2.58955
O          9.95152        25.74729         1.87208
H          9.11420        26.14463         2.19405
O          9.68094        17.41995        -1.70462
H          9.58464        16.58953        -2.21613
O          6.14094         6.34569         2.59343
H          6.92822         6.86916         2.85921
O         16.98915         8.37591        -2.63711
H         16.12519         8.79944        -2.83250
H          1.31377         2.20169         0.72890
H         -0.87751         3.37414         0.52780
H         -0.96101         5.83802         0.27878
H         -1.04107         7.80528         0.69333
H         -1.02783        10.21661         0.94167
H         -1.06407        12.12660         0.28568
H         -1.06184        14.55462        -0.01522
H         -1.13175        16.53514         0.39872
H         -1.09111        18.95402         0.26587
H         -1.06542        20.86858         0.51172
H         -1.04648        23.28797         0.33858
H         -1.06055        25.20138        -0.04174
H         -1.01571        27.59781        -0.45625
H         -0.85770        29.16588        -1.59485
H         -0.62997        31.29763        -2.85019
H         -0.60682        34.20265        -2.91834
H         -0.85476        36.30299        -1.55969
H          0.26171        38.15954        -0.31386
H          3.75105         2.27000         0.77102
H          2.32325        39.29498         0.44281
H          6.21223         2.31424         0.83742
H          4.76111        39.33323         0.75432
H          8.67199         2.33001         0.66188
H          7.23030        39.41758         0.88513
H         11.14211         2.35077         0.54199
H          9.72499        39.51193         0.75398
H         13.60351         2.38999         0.45381
H         12.19385        39.55177         0.71045
H         16.02734         2.38635         0.03587
H         14.67931        39.58850         0.63816
H         18.39919         2.58160         0.39814
H         17.14673        39.60694         0.62660
H         20.54831         3.79456         0.21358
H         21.88855         5.73799        -0.68219
H         21.84772         8.16458        -0.54975
H         21.84347        10.05662        -1.01560
H         21.84274        12.48022        -1.07259
H         21.84305        14.37528        -1.20072
H         21.86952        16.79683        -1.08049
H         21.85616        18.70841        -1.09693
H         21.85545        21.13343        -0.87682
H         21.90949        22.92497        -0.13024
H         21.93632        25.35143         0.10918
H         21.91763        27.29341        -0.06345
H         21.88834        29.74306        -0.01029
H         21.92210        31.61675         1.08592
H         21.80813        34.03881         1.42319
H         21.81880        35.95241         0.88946
H         21.76192        38.41818         0.76358
H         19.59846        39.64020         0.64431
