         430
 CSIRO Nanostructure Databank - Neutral Graphene Oxide Data Set
C         28.22643        27.31501        -1.48102
C         28.20795        28.71454        -1.85683
C         27.03792        29.43286        -2.02355
C         28.15081        31.62889        -1.88320
C         27.01338        30.85426        -2.06921
C         28.11944        33.07072        -1.69009
C         26.93185        33.81051        -1.80969
C         28.05884        35.94059        -1.36538
C         26.89805        35.19725        -1.64348
C         28.02812        37.38258        -1.16231
C         26.82777        38.12050        -1.23290
C         27.95735        40.21212        -0.64262
C         26.79949        39.49018        -0.99269
C         27.91903        41.63622        -0.34021
C         26.69160        42.36626        -0.45416
C         27.81497        44.47680        -0.01933
C         26.66108        43.74936        -0.35805
C         27.85768        45.88833        -0.09636
C         30.73099        27.23754        -1.64705
C         29.38095        26.62938        -1.31207
C         30.70409        28.72775        -1.43570
C         29.49624        29.41813        -1.92444
C         30.62529        31.62261        -1.29276
C         29.45961        30.94518        -1.89099
C         30.53068        33.05402        -1.17119
C         29.33893        33.77857        -1.38843
C         30.48119        35.97669        -1.03961
C         29.30538        35.23218        -1.26003
C         30.46342        37.39083        -0.81217
C         29.22646        38.09662        -0.85111
C         30.39031        40.20335        -0.20425
C         29.19961        39.50765        -0.56341
C         30.36081        41.62977         0.09001
C         29.09376        42.31178         0.02903
C         30.29023        44.51025         0.42918
C         29.00184        43.73536         0.52153
C         30.28612        45.88868         0.30040
C         29.03957        46.57871         0.06692
C         33.06475        24.47435        -0.42570
C         31.95173        25.16847        -0.95500
C         33.01913        27.31402        -0.48573
C         31.90628        26.54696        -0.99029
C         32.94901        28.71010        -0.44088
C         31.78162        29.43444        -0.91985
C         32.83443        31.63034        -0.09596
C         31.71693        30.88271        -0.82012
C         32.99720        32.93551        -0.80119
C         31.77041        33.76930        -0.83526
C         32.98395        36.09033        -0.92454
C         31.75886        35.26982        -0.86024
C         32.91592        37.42953        -0.47077
C         31.65660        38.10294        -0.46794
C         32.84719        40.17576         0.13698
C         31.63029        39.49632        -0.15597
C         32.81475        41.57223         0.69502
C         31.53314        42.31357         0.42361
C         32.80905        44.51650         0.58763
C         31.52253        43.76830         0.86704
C         32.79074        45.94123         0.44918
C         31.54351        46.64089         0.33590
C         32.75891        48.74932         0.09198
C         31.56484        48.03667         0.18064
C         35.42009        23.02107         0.51108
C         35.38136        24.44413         0.48261
C         34.18745        25.14912         0.03558
C         35.37657        27.27937         0.32961
C         34.21021        26.59528        -0.00862
C         35.39101        28.76392         0.08395
C         34.03477        29.43257         0.34556
C         35.38742        31.55157        -0.06073
C         34.13967        30.88553        -0.00724
C         35.45715        32.86471        -0.62589
C         34.25464        33.35326        -1.17168
C         35.40631        36.04766        -0.56574
C         34.24383        35.56555        -1.19374
C         35.35712        37.39070        -0.10954
C         34.12721        38.10633        -0.18255
C         35.33068        40.21883         0.15479
C         34.08617        39.51093         0.08052
C         35.27396        41.68469        -0.17709
C         34.03899        42.38841         0.33949
C         35.30994        44.50092         0.43774
C         34.02037        43.77132         0.45611
C         35.30193        45.99483         0.41848
C         34.00497        46.69736         0.32978
C         35.27792        48.89878        -0.04631
C         33.99920        48.09056         0.15985
C         35.30730        50.21311         0.68128
C         37.76078        23.02122         1.19325
C         36.56455        22.33555         0.84901
C         37.72969        24.45577         1.20581
C         36.53786        25.15804         0.85329
C         37.72946        27.32688         1.13248
C         36.58004        26.61456         0.79069
C         37.84889        28.76509         0.68939
C         36.50833        29.49771         0.83229
C         37.84992        31.61962         0.35205
C         36.60904        30.91012         0.31385
C         37.88352        33.03241        -0.00449
C         36.72074        33.69568        -0.72325
C         37.79817        35.92028         0.22266
C         36.53506        35.16091        -0.21074
C         37.79484        37.39102         0.19847
C         36.57900        38.09052         0.18081
C         37.81066        40.24186         0.16075
C         36.54996        39.53412         0.18104
C         37.82157        41.66163         0.07685
C         36.57833        42.40778         0.04679
C         37.78673        44.55098         0.07171
C         36.56495        43.78717         0.10147
C         37.78597        45.92609         0.10025
C         36.51670        46.68548        -0.18563
C         37.76368        48.79556         0.44667
C         36.55632        48.13591         0.17880
C         37.76230        50.20454         0.78200
C         36.48773        50.83032         0.98003
C         40.24213        20.22420         1.79907
C         39.06940        20.86140         1.53016
C         40.12331        23.05405         1.81167
C         38.98759        22.30557         1.44263
C         39.89730        24.40390         2.17005
C         38.86132        25.18340         1.69143
C         40.26694        27.43161         1.51288
C         38.90734        26.70718         1.87018
C         40.27170        28.79567         1.24355
C         38.96591        29.56058         1.37650
C         40.25921        31.73395         1.13833
C         39.00375        30.97387         0.83680
C         40.28626        33.10453         0.52581
C         39.06200        33.76285         0.17996
C         40.25884        35.93484         0.06362
C         39.08012        35.21688         0.09108
C         40.26972        37.37476         0.13597
C         39.04290        38.08985         0.19147
C         40.28552        40.22365         0.26391
C         39.03905        39.52304         0.19728
C         40.27949        41.65957         0.23344
C         39.06009        42.34658         0.10526
C         40.24977        44.51046         0.50000
C         39.08380        43.82454        -0.19939
C         40.25102        45.98296         0.21466
C         39.03370        46.67221         0.20683
C         40.24857        48.72350         0.95847
C         39.00242        48.07508         0.41581
C         40.23990        50.22393         0.87506
C         39.00716        50.91877         0.91407
C         40.23310        53.02675         1.12051
C         39.04224        52.34564         1.03679
C         42.79967        20.32360         2.05463
C         41.52319        20.93020         1.66477
C         42.77835        23.20948         1.84107
C         41.48202        22.48259         1.69214
C         42.84730        24.64569         1.72198
C         41.76638        25.48754         2.04461
C         42.74837        27.41626         1.03748
C         41.56037        26.77042         1.51269
C         42.72994        28.82002         0.81653
C         41.49374        29.52418         0.96335
C         42.72684        31.64032         0.64735
C         41.50850        30.93485         0.84614
C         42.72176        33.06876         0.55139
C         41.51191        33.77256         0.39916
C         42.78272        35.94743         0.13993
C         41.53337        35.17338        -0.18390
C         42.76658        37.36345         0.14980
C         41.51203        38.09178         0.18791
C         42.77628        40.22600         0.67448
C         41.50370        39.49512         0.31832
C         42.77854        41.68692         0.27917
C         41.53795        42.39278         0.21853
C         42.75927        44.52438         0.15153
C         41.54649        43.79989         0.21298
C         42.78021        45.95596         0.12162
C         41.50723        46.72392        -0.12407
C         42.72658        48.79217         0.54344
C         41.53337        48.11036         0.46237
C         42.73141        50.21958         0.81737
C         41.47788        50.91639         0.92732
C         42.71916        53.02590         1.12059
C         41.47902        52.33831         1.05749
C         43.94880        21.04431         1.98414
C         45.21392        23.14412         1.39197
C         43.96936        22.47173         1.71913
C         45.21917        24.53869         1.09438
C         44.01575        25.29146         1.22763
C         45.19272        27.37098         0.62934
C         43.97744        26.69038         0.96378
C         45.18871        28.78552         0.46247
C         43.95884        29.51584         0.57695
C         45.21167        31.63540         0.30013
C         43.96732        30.93026         0.51048
C         45.23720        33.04662         0.27231
C         44.01703        33.81224         0.70865
C         45.22778        35.92174         0.08267
C         43.98722        35.24471         0.24443
C         45.22689        37.35622         0.00589
C         44.01165        38.06775         0.14463
C         45.23410        40.18884         0.23280
C         44.03566        39.50087         0.26105
C         45.26369        41.66019         0.57483
C         43.98029        42.38180         0.24505
C         45.21637        44.52501         0.04581
C         43.99952        43.80763         0.12981
C         45.23613        45.93797         0.08040
C         43.98491        46.65685         0.14283
C         45.18472        48.80905         0.32085
C         43.99010        48.10954         0.28293
C         45.20802        50.21431         0.66236
C         43.94747        50.92801         0.85321
C         43.91392        52.34251         1.02778
C         47.59497        23.08187         0.84431
C         46.43531        22.44089         1.24683
C         47.62595        24.47190         0.57802
C         46.41980        25.21243         0.71376
C         47.62695        27.32449         0.24615
C         46.40640        26.63389         0.51575
C         47.63638        28.74439         0.13285
C         46.41739        29.47908         0.23472
C         47.67654        31.60612        -0.02152
C         46.43281        30.90467         0.14735
C         47.67551        33.03083        -0.12591
C         46.44316        33.75636         0.01990
C         47.64005        35.90240        -0.58437
C         46.42930        35.18172        -0.06154
C         47.68748        37.36143        -0.19842
C         46.47743        38.06575        -0.05586
C         47.70100        40.20572         0.02483
C         46.48000        39.49414         0.06943
C         47.69251        41.65869        -0.03112
C         46.50108        42.35085         0.07189
C         47.73424        44.53138        -0.08072
C         46.45801        43.78746        -0.36324
C         47.71093        45.94545         0.00638
C         46.47432        46.64408         0.02466
C         47.72428        48.80540         0.35451
C         46.46341        48.14162        -0.14770
C         47.66497        50.12219         0.75640
C         46.43827        50.83308         0.85713
C         50.06012        24.47405        -0.00305
C         48.84764        25.16193         0.21297
C         50.06505        27.28482        -0.12973
C         48.84062        26.58294         0.09807
C         50.08459        28.70433        -0.08018
C         48.88529        29.44425        -0.00043
C         50.16949        31.57784        -0.16326
C         48.90333        30.87970        -0.06043
C         50.16003        33.03196        -0.26976
C         48.91719        33.74447        -0.27166
C         50.14309        35.88293        -0.40944
C         48.92857        35.15796        -0.36364
C         50.13872        37.31406        -0.30440
C         48.93206        38.05000        -0.17829
C         50.13166        40.23444        -0.23309
C         48.93412        39.50052        -0.09449
C         50.15405        41.66304        -0.29179
C         48.94092        42.37942        -0.20691
C         50.19703        44.52036        -0.13059
C         48.95055        43.81323        -0.13926
C         50.20165        45.94878        -0.01960
C         48.96993        46.66516         0.07060
C         50.22269        48.73820         0.33668
C         48.97710        48.07356         0.25495
C         51.22901        25.15308        -0.33540
C         52.47352        27.27814        -0.78589
C         51.26466        26.55491        -0.40079
C         52.56117        28.67472        -0.55539
C         51.41132        29.38631         0.12192
C         52.66720        31.56102        -0.14323
C         51.36873        30.86526        -0.16004
C         52.65295        33.04903        -0.32191
C         51.36305        33.75605        -0.39469
C         52.64052        35.87800        -0.58483
C         51.38805        35.17214        -0.45902
C         52.66848        37.28952        -0.59271
C         51.42634        38.00757        -0.22311
C         52.59244        40.23678        -0.76939
C         51.40813        39.51751        -0.22200
C         52.63250        41.69235        -0.56196
C         51.41237        42.37935        -0.35350
C         52.66584        44.51206        -0.31060
C         51.41903        43.80512        -0.25394
C         52.68902        45.92997        -0.16710
C         51.44605        46.65205         0.00914
C         51.41804        48.05271         0.19951
C         54.70971        27.30695        -1.74539
C         53.56077        26.61219        -1.38892
C         54.81325        28.68440        -1.48786
C         53.73605        29.36502        -0.87277
C         54.77350        31.54505        -1.55452
C         53.96789        30.80636        -0.45329
C         54.98857        33.01664        -1.22042
C         53.86738        33.74527        -0.80371
C         55.09395        35.86131        -1.02114
C         53.87252        35.16364        -0.79249
C         55.10322        37.30840        -0.97432
C         53.87589        37.99453        -0.79772
C         55.13359        40.22103        -0.95181
C         53.86642        39.46757        -0.98467
C         55.10786        41.64622        -0.86036
C         53.87261        42.36746        -0.66468
C         55.11815        44.49985        -0.57212
C         53.88450        43.79363        -0.51430
C         55.11976        45.90815        -0.41736
C         53.94001        46.59951        -0.21977
C         56.00981        29.42390        -1.87276
C         56.02505        30.77009        -1.89292
C         56.18235        33.72201        -1.48175
C         56.24679        35.10027        -1.32772
C         56.30204        38.06861        -1.08674
C         56.31977        39.45541        -1.01645
C         56.31953        42.40599        -0.92146
C         56.32787        43.77179        -0.78612
O         41.57730        21.71091         0.43689
O         52.84311        32.44052         1.03509
O         31.69290        34.51686         0.46801
O         52.97203        39.83744        -2.12975
O         51.63858        38.79082         1.03286
O         29.72866        30.21697        -3.14123
O         34.34964        34.45670        -2.03649
O         36.87390        35.30901         1.19187
O         35.51581        45.30595         1.67912
O         40.85354        25.01670         2.99029
O         36.32697        46.61549        -1.64563
H         35.87050        47.45033        -1.92121
O         46.47902        48.35742        -1.62030
H         46.54338        49.32611        -1.76388
O         30.91820        27.03658        -3.09488
H         30.31260        27.65588        -3.55731
O         38.24694        28.74329        -0.70746
H         37.43349        28.63032        -1.25892
O         41.43952        46.92645        -1.59135
H         42.30135        47.30355        -1.87100
O         45.33372        41.70627         2.06251
H         46.16606        41.25725         2.32670
O         32.37915        31.84412         1.29510
H         32.11012        32.78956         1.38173
O         35.09619        41.71002        -1.65737
H         35.82608        41.18126        -2.04585
O         32.89929        41.40232         2.15993
H         32.53654        42.23604         2.56019
O         39.31808        43.94502        -1.63206
H         38.46240        43.83840        -2.09727
O         40.00031        44.37414         1.93230
H         40.68139        44.88566         2.41689
O         41.60394        34.97443        -1.64208
H         40.79075        34.49689        -1.91373
O         46.37762        43.73297        -1.85171
H         46.41437        44.66030        -2.17265
O         35.26595        49.21345        -1.51267
H         35.99685        49.85026        -1.66993
O         38.70409        29.68823         2.80559
H         39.26137        30.44002         3.12940
O         42.82146        40.23869         2.14608
H         43.62178        40.76414         2.39675
O         38.70059        26.95762         3.28789
H         39.43301        26.50845         3.76455
O         37.09259        33.80301        -2.12952
H         36.27185        34.02825        -2.62514
O         33.64408        29.31563         1.73462
H         33.12338        30.11957         1.96560
O         54.77417        30.76599         0.73711
H         54.38750        31.41905         1.36754
O         40.22093        48.40093         2.41375
H         40.86505        48.99795         2.85201
O         36.13602        29.57351         2.21655
H         36.96229        29.67751         2.75547
O         40.26985        31.94012         2.63110
H         41.09260        32.43328         2.84523
O         53.91282        31.53691        -2.73359
H         54.42745        31.89042        -3.48885
O         35.65335        28.93245        -1.34643
H         34.96458        28.43247        -1.83695
O         51.68245        29.28488         1.57212
H         51.04826        29.87380         2.03367
O         44.17774        33.93352         2.19000
H         45.03361        34.38644         2.35158
O         47.46155        35.91740        -2.06533
H         48.22109        36.41190        -2.44147
O         31.43607        43.68464         2.35405
H         30.47757        43.49162         2.54674
O         28.73676        43.60134         2.01559
H         28.39122        44.47204         2.31193
H         27.25980        26.81946        -1.30015
H         26.07646        28.89812        -2.01461
H         26.02713        31.33590        -2.12649
H         25.98975        33.29585        -2.04350
H         25.92857        35.70361        -1.74344
H         25.88274        37.61799        -1.47923
H         25.83054        40.00089        -1.06624
H         25.76664        41.84337        -0.72767
H         25.73657        44.29309        -0.60419
H         26.93688        46.43369        -0.35282
H         29.33789        25.57119        -1.01431
H         29.02497        47.67113        -0.02849
H         33.02775        23.37730        -0.42330
H         31.11475        24.57983        -1.35550
H         32.72119        49.83683        -0.05855
H         30.62675        48.60074         0.10160
H         34.52536        22.44272         0.24679
H         34.36026        50.73305         0.88460
H         36.54890        21.23739         0.83843
H         36.45421        51.83417         1.42882
H         40.25330        19.15012         2.03601
H         38.13676        20.27983         1.52439
H         40.23586        54.12187         1.22251
H         38.10037        52.91058         1.06374
H         42.81354        19.27266         2.37850
H         42.71885        54.11984         1.23310
H         44.89946        20.54037         2.20826
H         44.85234        52.91216         1.06022
H         48.51269        22.48603         0.74885
H         46.47898        21.36198         1.44636
H         48.58107        50.65541         1.04748
H         46.48681        51.88369         1.17223
H         50.09338        23.37870         0.06775
H         50.25545        49.82732         0.47543
H         52.14114        24.56925        -0.51881
H         52.35456        48.62415         0.24290
H         55.54610        26.77911        -2.22586
H         53.50314        25.53458        -1.59363
H         56.07501        46.45100        -0.46011
H         53.98369        47.69136        -0.11138
H         56.89542        28.84927        -2.18467
H         56.92520        31.30026        -2.23672
H         57.09003        33.18487        -1.78856
H         57.20594        35.60461        -1.50718
H         57.26295        37.54453        -1.17923
H         57.29645        39.95831        -1.03257
H         57.27337        41.88755        -1.08766
H         57.27691        44.32467        -0.84045
