         598
 CSIRO Nanostructure Databank - Neutral Graphene Oxide Data Set
C         22.87906        69.81113        -1.48238
C         23.02512        71.06568        -2.32426
C         21.85008        71.89917        -2.56376
C         23.23638        73.79708        -3.22748
C         21.97738        73.16236        -3.09279
C         25.37198        65.67786        -0.31449
C         25.35383        67.09272        -0.44522
C         24.18522        67.77366        -0.89053
C         25.41188        69.87520        -1.07022
C         24.19527        69.13022        -1.17699
C         25.50293        71.22849        -1.57762
C         24.38345        71.77077        -2.37424
C         25.62621        73.90269        -2.63065
C         24.40996        73.19570        -2.75449
C         27.85836        61.45129         0.11167
C         27.82905        62.85806         0.16615
C         26.60897        63.56601        -0.06401
C         27.70393        65.70569         0.55883
C         26.53500        64.96127         0.02880
C         27.67238        67.22971         0.48372
C         26.52220        67.87116        -0.18534
C         27.77321        70.03367        -0.23228
C         26.55454        69.23652        -0.50866
C         27.81911        71.47031        -0.71601
C         26.65622        71.99109        -1.45934
C         28.00293        73.99923        -2.00060
C         26.76541        73.30894        -2.05060
C         30.28137        57.04622         0.28686
C         30.30392        58.54780         0.06272
C         29.06232        59.30832         0.19500
C         30.31355        61.43157         0.40297
C         29.06756        60.70603         0.21819
C         30.27448        62.85662         0.50582
C         29.04558        63.58478         0.40405
C         30.19677        65.73909         0.73513
C         29.02106        65.01846         0.59216
C         30.24985        67.21990         0.80869
C         28.96056        67.99393         0.59412
C         30.27686        69.97812        -0.20381
C         29.05784        69.34322         0.00158
C         30.29975        71.34024        -0.71471
C         29.14565        72.05606        -0.98008
C         30.43028        74.07648        -1.60105
C         29.19436        73.39478        -1.54680
C         32.98311        52.94158        -0.29514
C         32.92456        54.30128        -0.10707
C         31.69105        55.04492        -0.10430
C         32.86067        57.14407         0.44576
C         31.64479        56.38985         0.15586
C         32.83054        58.54597         0.62952
C         31.60961        59.29831         0.26231
C         32.73056        61.42862         0.88954
C         31.54111        60.74262         0.54462
C         32.67960        62.84956         0.94240
C         31.49444        63.55534         0.70460
C         32.68804        65.76496         1.08119
C         31.50383        65.04620         0.46665
C         32.74291        67.28300         0.92981
C         31.51036        67.94537         0.51586
C         32.81132        69.93533        -0.04568
C         31.54012        69.27437         0.07907
C         32.87849        71.23973        -0.71984
C         31.59245        71.95193        -1.09156
C         32.87903        74.07188        -1.30875
C         31.64576        73.41563        -1.31903
C         35.41590        48.57173        -0.29358
C         35.21576        49.91939         0.23281
C         34.16499        50.79821        -0.27866
C         35.36614        52.80358         0.51309
C         34.17554        52.15734        -0.04000
C         35.43637        54.28451         0.44135
C         34.17432        55.05798         0.10810
C         35.28134        57.14044         0.93041
C         34.10601        56.46833         0.51485
C         35.20180        58.51983         1.23961
C         33.99813        59.24327         1.02559
C         35.17243        61.38096         1.31850
C         33.98200        60.70228         1.11355
C         35.20598        62.85316         1.37270
C         33.91571        63.60139         1.21777
C         35.17587        65.73177         0.75264
C         33.94030        65.04214         1.01191
C         35.22275        67.20607         0.78280
C         34.05325        67.94402         0.74881
C         35.28218        70.02623         0.16690
C         34.04961        69.33896         0.34334
C         35.32800        71.38587        -0.30368
C         34.11547        72.03043        -0.64636
C         35.31532        74.13621        -0.84007
C         34.10009        73.40872        -0.97420
C         37.90422        44.36039        -0.77538
C         37.82196        45.69783        -0.30981
C         36.67187        46.47356        -0.43329
C         37.70733        48.51883         0.60735
C         36.56475        47.84945        -0.01186
C         37.70238        49.85162         0.94451
C         36.43420        50.60420         0.91778
C         37.66528        52.74934         1.48778
C         36.45739        52.07743         0.93062
C         37.68367        54.24918         1.58225
C         36.53027        55.02484         1.08903
C         37.72230        57.10835         1.65652
C         36.51583        56.40167         1.19469
C         37.69351        58.48157         1.82791
C         36.39547        59.18785         1.78463
C         37.71066        61.42566         1.64877
C         36.40761        60.71269         1.76821
C         37.67868        62.80621         1.31224
C         36.49110        63.52593         1.14822
C         37.73442        65.71462         0.72383
C         36.47698        64.94090         0.75527
C         37.78222        67.08158         0.57873
C         36.53653        67.86813         0.79806
C         37.81848        69.97377         0.08582
C         36.54815        69.37444         0.53666
C         37.80058        71.31490        -0.36967
C         36.57055        72.09844        -0.39875
C         37.68030        74.49736        -0.24052
C         36.53370        73.52317        -0.55363
C         40.47635        40.33872        -1.96054
C         40.42858        41.63522        -1.43584
C         39.18467        42.32168        -1.27849
C         40.40926        44.40576        -0.71719
C         39.12384        43.65393        -0.86587
C         40.34024        45.64535         0.08266
C         39.02416        46.28891         0.32819
C         40.22581        48.48731         0.78515
C         38.94790        47.71894         0.78344
C         40.21877        49.88710         1.27318
C         38.89705        50.52151         1.61752
C         40.15093        52.73414         1.67596
C         38.95914        52.03546         1.49423
C         40.18369        54.18674         1.79019
C         38.97456        54.95511         1.69885
C         40.20136        57.03073         2.19959
C         38.94714        56.34201         1.84295
C         40.19411        58.55148         2.32060
C         38.86432        59.31320         2.35805
C         40.18903        61.32129         1.50770
C         38.94102        60.71511         1.75846
C         40.24705        62.78567         1.27753
C         38.95392        63.54110         1.20671
C         40.20974        65.55682         0.22127
C         38.92482        64.87709         0.53058
C         40.22197        67.03484         0.13047
C         39.03660        67.76481         0.27708
C         40.23560        69.86964        -0.26265
C         39.02245        69.21361         0.05417
C         40.26512        71.25190        -0.58905
C         39.01884        71.84836        -0.84715
C         40.24776        74.20438         0.01845
C         39.05002        73.97346        -0.57312
C         42.94132        36.23383        -3.17663
C         42.91778        37.60351        -2.86242
C         41.73232        38.33892        -2.68918
C         42.91899        40.32026        -1.77853
C         41.71273        39.67012        -2.17368
C         42.89376        41.57017        -1.10486
C         41.65447        42.27040        -1.00374
C         42.83168        44.19215        -0.03427
C         41.64593        43.59472        -0.51837
C         42.81149        45.59719         0.33736
C         41.52031        46.26698         0.40322
C         42.74513        48.37586         1.11582
C         41.49764        47.72431         0.65668
C         42.67576        49.82136         1.43334
C         41.38991        50.57143         1.42301
C         42.62793        52.65115         1.93189
C         41.42675        52.00718         1.68729
C         42.63142        54.08250         2.27866
C         41.41523        54.86501         2.00009
C         42.70075        56.98398         2.14526
C         41.47366        56.28139         2.06069
C         42.69174        58.47835         2.12196
C         41.43930        59.24758         1.95749
C         42.68250        61.26098         1.14341
C         41.43738        60.58583         1.54878
C         42.67390        62.64376         0.71428
C         41.47009        63.43327         0.72525
C         42.65212        65.46598        -0.14479
C         41.45959        64.78290         0.38454
C         42.66024        66.94789        -0.30337
C         41.48711        67.66601        -0.19721
C         42.75213        69.88313        -0.76587
C         41.46107        69.10607        -0.52423
C         42.73691        71.34379        -0.52052
C         41.49968        72.03147        -0.55300
C         42.69219        74.10282        -0.04403
C         41.47915        73.44603        -0.25568
C         45.38676        33.45192        -3.79755
C         44.18067        34.15620        -3.69025
C         45.41617        36.15513        -2.99740
C         44.16531        35.51623        -3.30426
C         45.44892        37.51911        -2.61165
C         44.21141        38.30133        -2.72724
C         45.42971        40.17524        -1.48892
C         44.20744        39.72070        -2.15038
C         45.33806        41.35974        -0.60773
C         44.09012        42.16389        -0.57093
C         45.29291        44.09941         0.54208
C         44.05592        43.44411         0.00486
C         45.29502        45.59950         0.87739
C         43.99641        46.29754         0.55769
C         45.20514        48.44074         0.67070
C         44.02190        47.72030         0.75170
C         45.16506        49.92828         0.76628
C         43.90985        50.61233         1.18763
C         45.26406        52.65270         1.92650
C         43.93361        51.93722         1.87808
C         45.24645        54.12304         2.07352
C         43.98708        54.83426         2.38395
C         45.17564        56.95423         1.92040
C         43.94125        56.29180         2.15725
C         45.15580        58.33349         1.40573
C         43.95959        59.18025         1.66763
C         45.14038        61.19517         0.71148
C         43.88147        60.53229         1.08551
C         45.11710        62.64360         0.60590
C         43.91012        63.30470         0.43986
C         45.23951        65.40828        -0.22940
C         43.92832        64.68649        -0.09564
C         45.19719        66.90395        -0.08955
C         43.96488        67.62005        -0.57047
C         45.26575        69.86141        -0.22469
C         44.05061        69.13131        -0.67729
C         45.20613        71.29690        -0.10571
C         43.95987        72.01145        -0.25959
C         45.15538        74.12824         0.17483
C         43.94500        73.43037        -0.05947
C         46.60271        34.06301        -3.51493
C         47.85986        36.07730        -2.80296
C         46.64553        35.42407        -3.09657
C         47.89122        37.40624        -2.30549
C         46.64143        38.13323        -2.17919
C         47.84723        39.97839        -0.96182
C         46.60701        39.44549        -1.58070
C         47.91296        41.43448        -0.70073
C         46.64687        42.02557        -0.22467
C         47.82499        44.26753         0.00494
C         46.62532        43.43873         0.28184
C         47.76523        45.69311         0.06449
C         46.52031        46.37081         0.38598
C         47.61893        48.57713        -0.00614
C         46.45155        47.75566         0.40037
C         47.57941        50.08686         0.14830
C         46.42753        50.70510         0.84361
C         47.67818        52.80157         1.16374
C         46.45947        52.00504         1.28561
C         47.64852        54.14488         1.51194
C         46.42569        54.83014         1.90191
C         47.65952        57.00726         1.86416
C         46.40930        56.27847         1.92404
C         47.70428        58.34258         1.55962
C         46.47264        59.01220         1.13082
C         47.69702        61.24432         1.32696
C         46.51091        60.49320         0.90376
C         47.60727        62.71171         1.32377
C         46.37527        63.38337         0.79336
C         47.80610        65.46532         0.24313
C         46.50513        64.71115         0.13333
C         47.77871        66.98034         0.09727
C         46.45408        67.67909         0.11565
C         47.65718        69.83272         0.40302
C         46.46550        69.16548         0.02540
C         47.56965        71.27990         0.66643
C         46.36704        72.01331         0.24394
C         47.61165        74.15211         0.52959
C         46.37870        73.44365         0.33629
C         49.11782        38.02783        -2.01250
C         50.38239        40.09682        -1.18617
C         49.17460        39.27556        -1.26440
C         50.37598        41.45275        -0.90127
C         49.08280        42.16143        -0.73436
C         50.01541        44.45257        -0.95283
C         48.97239        43.61836        -0.52768
C         50.14997        45.80650        -0.56757
C         48.94323        46.46884        -0.18566
C         50.11376        48.62768        -0.29781
C         48.93874        47.91288        -0.13339
C         50.16278        50.11277        -0.20718
C         48.86130        50.85609         0.07683
C         50.14583        52.83381         0.79234
C         48.91514        52.18674         0.71202
C         50.17900        54.26840         1.10418
C         48.87539        54.95047         1.38469
C         50.20704        56.97839         2.18338
C         48.88609        56.19950         2.25798
C         50.19580        58.45856         1.94192
C         48.98689        59.09641         1.30773
C         50.14901        61.29021         1.73935
C         48.92818        60.59456         1.56023
C         50.13707        62.77142         1.83398
C         48.87190        63.50503         1.47350
C         50.16580        65.58368         0.94454
C         48.96651        64.85942         0.90238
C         50.16097        66.99702         0.64807
C         48.98679        67.72425         0.46038
C         50.10793        69.88244         0.81962
C         48.92046        69.16782         0.54510
C         50.10822        71.31146         1.14469
C         48.81220        72.05623         1.03052
C         50.08427        74.18164         0.65366
C         48.84449        73.51018         0.74360
C         51.65897        42.07896        -0.62891
C         52.83896        44.34510        -0.45338
C         51.90005        43.41969        -0.93188
C         52.68660        45.77343        -0.54793
C         51.42386        46.46082        -0.62920
C         52.69455        48.70522        -0.37811
C         51.38651        47.93291        -0.58918
C         52.65247        50.09287         0.13357
C         51.42596        50.78412         0.19458
C         52.63552        52.83270         0.83395
C         51.40239        52.14452         0.59725
C         52.65779        54.22951         1.19899
C         51.45395        54.93123         1.44870
C         52.69136        57.01201         1.77204
C         51.47340        56.27727         1.85681
C         52.68516        58.47933         1.82796
C         51.46746        59.17860         1.74629
C         52.66512        61.29308         1.77503
C         51.42821        60.59842         1.73556
C         52.69564        62.76587         1.78443
C         51.42218        63.54140         1.74531
C         52.64053        65.63284         1.16928
C         51.41967        64.94593         1.26588
C         52.69329        67.02287         0.88905
C         51.44273        67.69408         0.55208
C         52.67522        69.92245         0.86341
C         51.39456        69.23123         0.61571
C         52.65883        71.31638         0.77808
C         51.42215        72.07742         0.99230
C         52.53806        74.22506         0.44602
C         51.35813        73.53415         0.68461
C         53.87436        46.52667        -0.29486
C         55.10334        48.60642         0.18608
C         53.92055        47.91747        -0.14499
C         55.12392        50.01244         0.38213
C         53.87058        50.74584         0.42494
C         55.11998        52.84187         0.86305
C         53.87137        52.13954         0.71871
C         55.13735        54.23288         1.06782
C         53.89338        54.93476         1.26494
C         55.13361        57.12957         1.16031
C         53.88547        56.33497         1.46691
C         55.16316        58.43796         1.91908
C         53.89711        59.20252         1.87351
C         55.17277        61.35388         1.90909
C         53.90941        60.61577         1.85071
C         55.21347        62.71499         1.65049
C         53.95174        63.40992         1.30766
C         55.19694        65.62997         1.22314
C         53.92638        64.89039         1.12854
C         55.17458        67.02702         1.08866
C         53.91458        67.76027         0.92617
C         55.15859        69.94251         1.22018
C         53.88952        69.17834         0.89476
C         55.17711        71.38349         0.70930
C         53.89108        72.01872         0.40150
C         55.11379        74.23129         0.30542
C         53.82334        73.54257         0.21862
C         56.33052        50.70558         0.56681
C         57.58231        52.80858         0.86252
C         56.36482        52.11337         0.76358
C         57.62290        54.21690         1.03356
C         56.38698        54.94934         1.14017
C         57.63999        57.05229         1.39993
C         56.41287        56.34712         1.30453
C         57.69634        58.46515         1.67087
C         56.45522        59.15311         2.12106
C         57.70469        61.38668         1.99772
C         56.43278        60.66307         2.41783
C         57.68473        62.75553         1.79391
C         56.43465        63.48227         1.61631
C         57.66962        65.61526         1.21719
C         56.41924        64.88200         1.36755
C         57.62454        67.06045         1.02768
C         56.41591        67.74136         1.01311
C         57.66603        69.94486         0.94135
C         56.37279        69.21010         0.63071
C         57.66543        71.44834         0.88434
C         56.34513        72.10802         0.60238
C         57.58622        74.33993         0.31124
C         56.29645        73.54359         0.35557
C         58.84108        54.93040         1.05448
C         60.09576        57.05302         1.23895
C         58.86710        56.32606         1.23054
C         60.12756        58.41970         1.43051
C         58.91182        59.14269         1.68038
C         60.28063        61.32543         1.73047
C         58.96650        60.60042         2.00993
C         60.27241        62.81559         1.57594
C         58.93652        63.53963         1.68149
C         60.20183        65.68668         1.15971
C         58.87984        64.93929         1.23308
C         60.03614        66.95005         0.29622
C         58.85705        67.78443         0.73439
C         59.99376        69.84972        -0.02629
C         58.88683        69.14756         0.65089
C         59.98136        71.33600        -0.14686
C         58.98162        72.20669         0.62233
C         59.74214        74.04693        -0.91683
C         58.78352        73.52124        -0.12074
C         61.47581        59.11026         1.47219
C         62.34826        61.20321         0.38498
C         61.39314        60.57392         1.11535
C         62.36080        62.64269         0.17491
C         61.34257        63.46300         0.77385
C         62.37103        65.46180        -0.19926
C         61.33053        64.84028         0.57279
C         62.39904        66.86254        -0.43088
C         61.35462        67.72138         0.23611
C         62.24332        69.67622        -1.03815
C         61.21298        69.09484        -0.36922
C         62.43041        71.17973        -1.09378
C         61.24636        72.01925        -0.59228
C         62.01609        73.92233        -2.11518
C         61.06281        73.40404        -1.12518
C         63.36499        63.23539        -0.57948
C         64.40281        65.24074        -1.57857
C         63.40113        64.64520        -0.78652
C         64.39798        66.62731        -1.85349
C         63.37272        67.44731        -1.25584
C         64.18823        69.38715        -2.52553
C         63.32017        68.85296        -1.57983
C         63.93452        70.72878        -3.09897
C         62.91329        71.63302        -2.46177
C         63.84632        73.55194        -3.73532
C         62.93846        73.09312        -2.75478
C         65.34677        67.22553        -2.71961
C         66.12997        69.17079        -4.03007
C         65.24532        68.58538        -3.09269
C         66.01911        70.53112        -4.44314
C         64.94005        71.33272        -3.97629
C         65.80496        73.24351        -5.22156
C         64.83983        72.70999        -4.32374
C         66.96208        71.11138        -5.33467
C         66.83578        72.44604        -5.71887
O         53.91373        63.94729        -0.04958
O         52.18714        63.38885         3.01057
O         35.36590        50.00539         1.69695
O         49.44849        50.83683        -1.25942
O         47.89542        71.64558         2.08849
O         45.60443        67.26897         1.27427
O         32.31763        71.17557        -2.10297
O         49.43608        55.07208         0.06195
O         45.99229        60.75314        -0.44198
O         48.07379        66.11950        -1.04149
O         42.74114        48.83594         2.51958
O         43.60041        59.11562         3.08802
O         43.17721        64.77917        -1.35242
O         50.19968        57.93516         3.29739
O         47.25188        49.46094        -1.12727
O         53.77866        72.61501        -0.93659
O         29.54429        67.87491         1.92243
O         40.25642        57.71342         3.52186
O         45.95918        41.11992         0.69793
O         40.91741        48.40983        -0.53544
O         44.25635        50.60060        -0.22946
O         46.03721        64.75621        -1.25319
O         39.39016        64.90253        -0.85700
O         39.00345        73.02096        -1.61423
O         32.52480        66.61213         2.24359
O         27.54866        71.16060         0.69250
O         43.25855        54.38476         3.56395
O         34.49043        63.34084         2.58667
O         36.15566        59.96598         3.00306
O         46.62352        63.34252         2.25256
O         35.18658        54.79107        -0.92492
O         36.62814        68.83549         1.90186
O         35.76778        65.16811        -0.53144
O         48.45949        39.15068         0.04891
O         44.21911        68.26290        -1.85358
O         59.40584        70.56265        -1.23298
O         27.34674        66.52243         1.71717
O         59.93298        60.88897         3.07649
O         49.30435        63.37025         2.87855
O         31.12063        58.95164        -1.09239
O         62.51694        70.83221        -3.59710
O         39.72819        63.55284         2.44699
O         23.92122        70.88738        -3.45833
O         40.58087        44.98704        -2.23322
O         44.34871        39.47586        -3.59189
O         51.49412        68.51067        -0.66294
O         38.84640        46.64192         1.75990
O         57.69367        70.73470         2.17334
O         37.37092        53.42870         2.77669
O         59.89255        63.45576         2.82602
O         50.95431        43.95656        -1.84315
O         55.81619        58.38384         3.22300
O         50.86165        71.72934         2.32359
O         45.70990        58.35398         0.05407
O         52.12687        48.55994        -1.71064
O         61.68888        73.10249         0.27800
O         48.70478        55.70743         3.55707
O         41.94916        69.43595        -1.88293
O         46.02983        43.42725         1.62177
O         44.73383        51.92518         3.09817
O         38.57906        59.57377         3.75407
H         38.90636        58.79953         4.26817
O         41.72162        45.82802        -2.26650
H         41.36148        46.73831        -2.10367
O         62.42443        58.42510         0.65684
H         62.08845        58.40371        -0.26218
O         61.78892        68.00737         1.59083
H         62.67413        68.42492         1.54589
O         31.75367        65.20942        -0.98425
H         31.13434        64.61816        -1.46360
O         60.52144        66.06414         2.51118
H         60.47722        65.24051         3.05472
O         63.54425        71.41985        -0.18898
H         63.34236        72.26335         0.28625
O         38.68132        50.26535         3.04371
H         39.34690        50.77301         3.55484
O         45.36090        45.72026         2.33325
H         45.81460        44.90717         2.66312
O         59.55169        72.53194         1.90369
H         60.42392        72.96058         1.72692
O         56.19676        69.25411        -0.80859
H         57.02200        68.94067        -1.23619
O         37.60926        74.85632         1.14692
H         37.61881        74.03874         1.68558
O         57.42631        75.50363        -0.49705
H         57.08952        75.22696        -1.37384
O         55.22175        69.96123         2.66113
H         56.09383        70.35718         2.91430
O         59.75966        66.52336        -1.06129
H         58.88444        66.08144        -1.07441
O         29.34379        56.44781        -0.61477
H         29.60806        56.69605        -1.52514
O         56.39608        60.81455         3.86425
H         55.99041        59.99127         4.22709
O         55.04490        57.51556        -0.25187
H         54.91523        56.69998        -0.78072
O         49.23754        58.95550        -0.12934
H         48.40914        59.16685        -0.61240
O         22.23428        70.14815        -0.23841
H         22.90929        70.48577         0.38561
H         23.27487        74.83785        -3.58020
H         25.68610        74.93863        -2.99666
H         28.05321        75.01661        -2.41624
H         30.44947        75.13359        -1.90447
H         32.90987        75.15205        -1.51450
H         35.28460        75.22892        -0.96643
H         37.49583        75.44048        -0.82037
H         40.31704        75.00625         0.76863
H         42.68145        75.17826         0.18793
H         45.12967        75.22308         0.27960
H         47.59599        75.24784         0.42569
H         50.07093        75.26048         0.43428
H         52.50769        75.32037         0.33913
H         55.13465        75.33173         0.28708
H         57.81228        74.69853         1.35478
H         59.57643        75.04013        -1.36483
H         61.95447        74.98484        -2.39478
H         63.84139        74.61894        -4.00401
H         65.73856        74.30112        -5.51396
H         22.19846        69.09458        -2.01064
H         20.86362        71.51353        -2.26957
H         21.07318        73.74236        -3.32707
H         24.47159        65.11567        -0.60446
H         23.25087        67.20410        -1.00390
H         26.91652        60.90592        -0.05003
H         25.71507        62.99762        -0.36119
H         29.89718        56.84967         1.32587
H         28.10951        58.75997         0.23289
H         32.06026        52.39233        -0.53564
H         30.74900        54.50479        -0.28284
H         34.62456        48.12320        -0.91315
H         33.32454        50.34856        -0.82888
H         36.98035        43.85837        -1.10222
H         35.78684        46.02553        -0.91110
H         39.54164        39.84013        -2.25647
H         38.25174        41.77778        -1.49019
H         41.99227        35.69976        -3.33328
H         40.76866        37.84240        -2.87777
H         45.36850        32.39835        -4.10987
H         43.23060        33.65105        -3.91583
H         47.54163        33.49850        -3.60512
H         48.80662        35.52676        -2.90858
H         50.05784        37.54211        -2.31497
H         51.34452        39.60807        -1.40099
H         52.44415        41.46335        -0.16651
H         53.74452        43.96981         0.04602
H         54.80822        45.96328        -0.14792
H         56.04534        48.04318         0.26431
H         57.27993        50.15080         0.52626
H         58.52828        52.25188         0.78581
H         59.78810        54.38568         0.92515
H         61.04192        56.51019         1.09665
H         61.85713        59.05130         2.52931
H         63.17643        60.61230        -0.03503
H         64.14475        62.60757        -1.03548
H         65.18159        64.60566        -2.02686
H         66.14375        66.60512        -3.15639
H         66.94047        68.55664        -4.45129
H         67.79073        70.49934        -5.71768
H         67.56916        72.88103        -6.41229
