         269
 CSIRO Nanostructure Databank - Neutral Graphene Oxide Data Set
C        -10.99417         0.71125        -1.12482
C        -10.06708         1.45635        -0.23901
C         -8.92306         0.68616         0.38822
C         -7.71511         1.46023         0.86742
C         -6.36965         0.82131         0.53037
C         -5.17471         1.47062         1.30554
C         -3.91516         0.76085         0.79349
C         -2.72319         1.51380         0.28701
C         -1.44827         0.80618        -0.14074
C         -0.17557         1.57967        -0.21797
C          1.08028         0.85092        -0.56896
C          2.38989         1.60648        -0.48861
C          3.67952         0.86625        -0.65340
C          4.93104         1.56764        -1.15500
C          6.23138         0.81552        -1.02634
C          7.51433         1.56880        -0.79607
C          8.63840         0.88713        -0.08004
C          9.47604         1.71906         0.87185
C         10.76457         1.00371         1.20508
C         -9.87774         2.90976        -0.41688
C         -8.85748         3.62775         0.12072
C         -7.74882         2.98356         0.88709
C         -6.44954         3.77993         1.06184
C         -5.13905         3.01008         1.12552
C         -3.85634         3.66698         0.74998
C         -2.70520         2.97659         0.47387
C         -1.36399         3.62055         0.53963
C         -0.14255         2.91116         0.07709
C          1.04109         3.75202        -0.30698
C          2.30793         3.07827        -0.76736
C          3.61039         3.82680        -0.99772
C          4.89921         3.09039        -1.26020
C          6.22494         3.84453        -1.20986
C          7.48185         3.07968        -0.86799
C          8.65942         3.79029        -0.29875
C          9.61211         3.15454         0.41742
C         -8.84762         5.12648        -0.12356
C         -7.48264         5.80614        -0.19528
C         -6.56653         5.34327         0.92078
C         -5.06245         5.99457         0.98325
C         -3.88147         5.14249         0.54042
C         -2.56077         5.85416         0.46980
C         -1.29807         5.09867         0.70130
C         -0.02492         5.83548         0.50089
C          1.09555         5.18763         0.09036
C          2.36847         5.94339        -0.11283
C          3.61326         5.30207        -0.66941
C          4.92857         5.99822        -0.50617
C          6.18199         5.40670        -1.16565
C          7.45701         6.00444        -0.54568
C          8.77359         5.25273        -0.67298
C         -7.35372         7.01869        -0.78920
C         -6.21580         7.92446        -0.50754
C         -5.06401         7.37916         0.27624
C         -3.71366         7.94728        -0.05689
C         -2.50138         7.33358         0.53517
C         -1.33279         8.01672         0.60379
C         -0.06102         7.28892         0.83536
C          1.21454         8.05291         0.81798
C          2.48576         7.28781         0.55811
C          3.76065         8.02702         0.37092
C          4.94922         7.31247        -0.16583
C          6.19985         8.14321        -0.39017
C          7.43642         7.30038        -0.18207
C         -6.02079         9.21391        -1.23234
C         -4.90129         9.96229        -1.11994
C         -3.62618         9.38066        -0.62147
C         -2.48610        10.13425        -0.17573
C         -1.33892         9.53544         0.61024
C          0.02760        10.16173         0.34482
C          1.19671         9.51822         0.55891
C          2.52569        10.22559         0.80902
C          3.74495         9.54126         0.15918
C          5.06336        10.08585         0.67201
C          6.19715         9.41787         0.42235
C        -10.97129        -0.63143        -1.26624
C         -9.92313        -1.49148        -0.67026
C         -8.81396        -0.79021         0.07024
C         -7.44624        -1.39140        -0.08038
C         -6.35093        -0.71038         0.69626
C         -5.07927        -1.45143         0.96001
C         -3.76185        -0.68920         1.26189
C         -2.49462        -1.40571         0.71425
C         -1.44583        -0.69652        -0.12340
C         -0.16074        -1.44914        -0.36713
C          1.11828        -0.64757        -0.47563
C          2.43907        -1.31642        -0.07016
C          3.62849        -0.66333        -0.86941
C          4.90711        -1.30589        -0.35285
C          6.19506        -0.56935        -0.41572
C          7.48386        -1.35551        -0.35715
C          8.64286        -0.58751         0.14682
C          9.72318        -1.18496         0.73760
C         10.82877        -0.34677         1.20335
C         -9.68367        -2.86053        -1.21991
C         -8.52052        -3.53385        -1.05894
C         -7.30679        -2.79272        -0.60095
C         -6.03324        -3.55891        -0.28567
C         -4.93852        -2.86823         0.46876
C         -3.76158        -3.63830         1.00809
C         -2.46238        -2.90444         0.77740
C         -1.40684        -3.67255         0.04658
C         -0.13508        -2.93858        -0.27616
C          1.14703        -3.55145         0.25936
C          2.37209        -2.83792        -0.31484
C          3.66040        -3.58134        -0.48413
C          4.90994        -2.81165        -0.13364
C          6.19124        -3.55178         0.11507
C          7.48557        -2.84891        -0.17544
C          8.74671        -3.55862         0.25665
C          9.88095        -2.67187         0.74831
C         -8.36885        -5.00551        -1.45483
C         -7.45933        -5.70314        -0.39606
C         -6.02417        -5.09433        -0.40153
C         -5.13971        -5.82751         0.69475
C         -3.79321        -5.13034         0.97296
C         -2.48609        -5.88868         0.85644
C         -1.35961        -5.15771         0.17563
C         -0.05088        -5.88940        -0.16224
C          1.20945        -5.08977         0.20876
C          2.48273        -5.81738        -0.05621
C          3.72276        -5.11560        -0.60475
C          4.95486        -5.80642        -0.04402
C          6.21306        -5.06083         0.20652
C          7.52028        -5.77764         0.24962
C          8.67767        -5.01643         0.48492
C         -7.40927        -7.20527        -0.49950
C         -6.32151        -8.04793         0.13362
C         -5.00282        -7.28066         0.23292
C         -3.73484        -8.05631         0.35906
C         -2.46058        -7.37140         0.71804
C         -1.19080        -8.05964         0.34670
C         -0.03054        -7.35006         0.26935
C          1.29026        -8.04966         0.41505
C          2.44415        -7.31421        -0.25400
C          3.74494        -8.03889        -0.37790
C          5.03288        -7.25028        -0.45259
C          6.34476        -7.95688        -0.29127
C          7.51724        -7.18478         0.16399
C         -6.07049        -9.39103        -0.53144
C         -4.93525       -10.08708        -0.36525
C         -3.77319        -9.57709         0.46527
C         -2.42834       -10.19313         0.13063
C         -1.21226        -9.52161         0.19871
C          0.03688       -10.18882        -0.01865
C          1.28888        -9.52257         0.06297
C          2.51476       -10.17177        -0.04475
C          3.82078        -9.44622         0.21610
C          5.11387       -10.12505        -0.20285
C          6.27509        -9.44842        -0.28533
O          7.62065        -2.26010        -1.50276
O          5.39589        -3.04227         1.22690
O          7.15266         3.44968        -2.24783
O          0.60063         7.66206         2.10379
O         -3.39829         8.14039        -1.44824
O         -2.27026        -6.71904         2.02978
O          8.71109         1.12574        -1.51801
O         -4.89041        -2.97263        -0.99579
O         -1.78919         0.00743        -1.33416
O         -7.20571         5.78109         2.06139
O         -7.98021         2.17066         2.09041
O         -1.23044         4.24906         1.89074
O          4.07151         3.55198        -2.35832
O         -1.92622        -4.50747        -1.02746
O          0.57465        -7.41297         2.66750
H          0.91950        -6.48826         2.76655
O          2.70007         6.05075        -1.54147
O          3.55242        -0.89080        -2.26827
H          2.67702        -0.58318        -2.60195
O          1.31879         3.48532        -1.73886
O         -5.76239         3.58203         2.32233
O         -4.17104        -7.50694        -0.93553
O         -4.81562         6.22833         2.35618
H         -5.72680         6.31939         2.76406
O          5.32839        -5.52977         1.31472
O          2.70899        10.22636         2.23050
H          2.82525         9.28979         2.51604
O         -5.36352         1.19371         2.68987
H         -5.94899         1.91154         3.04791
O         -7.05019        -1.62543        -1.46594
O         -0.18650        -2.32614        -1.56948
O        -10.10329         1.00296         1.15668
O          3.40310         7.46803         1.69472
O          5.42362        -0.59783         0.82255
O         -6.00712         8.23989         0.94432
O          1.09230         0.02485        -1.77769
O         -6.08567        -1.27519         2.00633
O          2.64136        -1.15094         1.33365
H          3.03326        -0.26106         1.50959
O          2.85902        -7.86957        -1.52368
O          3.98141        -9.31830         1.65985
H          3.13797        -8.99464         2.05820
O         -9.64941         5.42687        -1.25797
H         -9.95664         6.35222        -1.18945
O          1.62612        -8.05155         1.91155
O          8.68099         1.74471         2.10770
H          9.23776         2.12665         2.81836
O         -5.85040        -5.85650         1.95160
H         -5.37815        -5.23940         2.57093
O         -3.79942         1.03810        -0.61818
O          5.84125        -7.45758        -1.62994
O          6.20696         5.90664        -2.47515
O         -3.87096        -4.37636         2.24317
O         -6.30976         1.09602        -0.88176
H         -5.52684         0.66468        -1.29258
O         -9.79864        -1.55925         0.80642
O          0.04794        -5.97879        -1.60827
H         -0.67932        -5.43949        -2.00450
O         -1.87001        -2.12319         1.83260
O         -5.45298        -5.39716        -1.68190
H         -4.75971        -4.72347        -1.87645
O         -3.29440         5.45800        -0.75644
O          9.79704         5.89707         0.07679
H          9.53209         5.91748         1.01862
O          1.07104        -3.21277         1.65972
H          1.84314        -3.61305         2.11870
O          2.84956        -3.14730        -1.63374
O         -4.03917        -9.92036         1.85388
H         -3.26154        -9.66055         2.39180
O          2.05420        -5.53312         1.31961
O          6.14142         8.51651        -1.80130
H          6.16521         7.64295        -2.30466
O          3.79826        -5.41895        -2.00584
H          3.16493        -4.84266        -2.49026
O         -7.88684        -5.14417        -2.78025
H         -6.90134        -5.09194        -2.76912
O          3.25008         1.33364         0.67519
O          5.56271         0.93784        -2.30414
O         -1.61812         9.92841         1.99948
H         -0.89408         9.55512         2.55159
O         -3.57340        -0.67152         2.67557
H         -4.39224        -0.29922         3.08591
O          3.65369         9.75591        -1.26265
H          4.48948         9.41121        -1.67715
O         -6.83944        -8.33577         1.46367
H         -6.67820        -7.54696         2.03209
O          9.92611        -3.24067        -0.57351
O         -8.15098        -5.37644         0.83601
H         -7.64740        -5.75256         1.59534
H         11.75308        -0.85416         1.51836
H         11.63021         1.59786         1.53598
H         10.47522         3.73537         0.78211
H          9.07104         5.30180        -1.75423
H          8.36020         7.78968         0.16674
H          7.16519         9.81185         0.76937
H          5.07071        11.02661         1.24264
H          2.46607        11.28746         0.46946
H          0.03356        11.25480         0.20657
H         -2.63600        11.21734        -0.03172
H         -4.87072        10.97666        -1.54467
H         -6.90800         9.64469        -1.72190
H         -8.14200         7.38948        -1.46405
H         -9.32730         5.58735         0.79215
H        -10.60584         3.44252        -1.04834
H        -11.74658         1.29836        -1.67374
H        -11.68913        -1.11455        -1.94682
H        -10.55486        -3.38326        -1.64653
H         -9.38079        -5.48440        -1.40833
H         -8.38745        -7.70537        -0.60992
H         -6.88788        -9.81887        -1.13176
H         -4.82778       -11.07502        -0.83929
H         -2.41355       -11.28059        -0.04575
H          0.02437       -11.26937        -0.22790
H          2.53259       -11.26022        -0.21454
H          5.12029       -11.22358        -0.27463
H          7.21177        -9.99479        -0.47918
H          8.45857        -7.72742         0.34299
H          9.64160        -5.53954         0.58099
H         10.63253        -3.09180         1.45425
