         344
 CSIRO Nanostructure Databank - Neutral Graphene Oxide Data Set
C          1.38560         1.98208        -1.18042
C          1.36365         3.39393        -1.26346
C          2.57696         1.30798        -1.02193
C          2.53061         4.13950        -1.16013
C          1.26812         6.35651        -0.85534
C          1.28660         7.69620        -0.66605
C          2.51982         5.65312        -1.34013
C          2.51393         8.47733        -0.72966
C          1.29567        10.65656        -0.83366
C          1.30279        12.04480        -0.81663
C          2.49824         9.91290        -0.73937
C          2.49863        12.77652        -0.68383
C          1.36551        14.95370        -1.19068
C          1.39772        16.31815        -1.34491
C          2.51573        14.23594        -0.74549
C          2.58451        17.05195        -1.07041
C          2.63719        18.45182        -1.30138
C          3.80548         2.02643        -0.93934
C          3.77930         3.45931        -0.99758
C          5.03895         1.34008        -0.83991
C          5.01964         4.16546        -0.91085
C          3.73458         6.28012        -0.62996
C          3.74724         7.79530        -0.69740
C          5.04331         5.66605        -1.12377
C          4.96029         8.48863        -0.52133
C          3.73089        10.62794        -0.62290
C          3.72985        12.05440        -0.55570
C          4.95811         9.91967        -0.44849
C          4.95728        12.74741        -0.37036
C          3.68708        14.94418        -0.42858
C          3.73920        16.36716        -0.57925
C          4.88918        14.18363         0.10570
C          4.93573        17.12509        -0.32118
C          3.81219        19.14144        -1.10815
C          4.97485        18.48223        -0.62397
C          6.25737         2.03587        -0.77929
C          6.21468         3.47087        -0.79313
C          7.51177         1.35138        -0.67038
C          7.48235         4.23411        -0.74205
C          6.22374         6.37717        -0.50191
C          6.20957         7.75071        -0.34734
C          7.41963         5.58790        -0.07004
C          7.42237         8.44782         0.01443
C          6.16190        10.63431        -0.20450
C          6.16487        12.04363        -0.21378
C          7.32543         9.89579         0.41442
C          7.49055        12.77988        -0.26906
C          6.17753        14.97778        -0.22408
C          6.08867        16.40503         0.36998
C          7.43926        14.23450         0.13041
C          7.42353        17.14218         0.32880
C          6.21413        19.34620        -0.50468
C          7.46902        18.61460        -0.08006
C          8.73991         2.01633        -0.56328
C          8.77401         3.49419        -0.66124
C          9.94072         1.33833        -0.26730
C          9.98446         4.21994        -0.21709
C          8.71612         6.35742        -0.10082
C          8.65038         7.78011         0.09673
C          9.93498         5.67227        -0.07399
C          9.86858         8.50850         0.42454
C          8.63887        10.64379         0.38910
C          8.65975        12.02671         0.32137
C          9.84392         9.89443         0.60555
C          9.88630        12.77737         0.53381
C          8.63615        14.91845         0.31465
C          8.67545        16.37810         0.30380
C          9.86480        14.18855         0.48389
C          9.89522        17.06519         0.20683
C          8.75550        19.15645        -0.47706
C          9.93470        18.47436        -0.17273
C         11.15160         2.03634        -0.01571
C         11.13877         3.49281        -0.02524
C         12.34711         1.35928         0.27713
C         12.42899         4.19051         0.09936
C         11.14168         6.41238         0.20134
C         11.11566         7.77736         0.49042
C         12.43304         5.70094         0.17236
C         12.35922         8.50412         0.72824
C         11.05687        10.61797         1.13607
C         11.09850        12.08348         0.79787
C         12.35263         9.88892         0.89149
C         12.35350        12.76351         0.76228
C         11.10560        14.94699         0.86873
C         11.13865        16.36523         0.35738
C         12.37822        14.18255         0.62254
C         12.35817        17.03156         0.24925
C         11.18990        19.12614        -0.29576
C         12.39750        18.45638        -0.03498
C         13.56035         2.03999         0.63073
C         13.57635         3.45127         0.62457
C         14.77926         1.32433         0.84322
C         14.72337         4.19627         1.12333
C         13.63547         6.38526         0.69043
C         13.60944         7.79396         0.80182
C         14.80006         5.66219         0.97867
C         14.82771         8.48614         1.07666
C         13.58882        10.61642         0.94232
C         13.57709        12.03369         0.82909
C         14.82378         9.91530         1.06055
C         14.86101        12.71818         0.44583
C         13.60844        14.89691         0.55847
C         13.60521        16.32569         0.42196
C         14.84683        14.20465         0.63772
C         14.83259        17.02502         0.40399
C         13.62742        19.14557        -0.01993
C         14.86365        18.47798         0.19956
C         16.00984         1.97583         1.04181
C         16.01872         3.41775         1.36354
C         17.24896         1.31589         0.95769
C         17.27845         4.18106         1.32365
C         16.02188         6.34040         1.27336
C         16.02689         7.74955         1.28479
C         17.26588         5.58779         1.40252
C         17.26848         8.47740         1.73521
C         16.07670        10.63634         1.14650
C         16.10610        12.04077         0.95473
C         17.28855         9.93366         1.34202
C         17.31372        12.75445         1.06627
C         16.05194        14.91360         0.77755
C         16.02867        16.32529         0.66802
C         17.31344        14.21489         1.02183
C         17.25745        17.10728         0.89662
C         16.07214        19.16363         0.16384
C         17.36996        18.41038         0.13786
C         18.48120         2.01738         1.06631
C         18.49434         3.45171         1.21692
C         19.71025         1.32762         0.96657
C         19.73963         4.14374         1.26432
C         18.52118         6.29858         1.42213
C         18.54455         7.72719         1.42509
C         19.74406         5.58309         1.35904
C         19.75294         8.41481         1.27896
C         18.50521        10.62605         1.25175
C         18.54035        12.04077         1.18817
C         19.75438         9.87293         1.05896
C         19.80351        12.73226         1.38935
C         18.47383        14.90722         1.29693
C         18.51245        16.38708         1.29355
C         19.71864        14.19289         1.64839
C         19.80408        17.09024         1.10935
C         18.59225        19.18349         0.52156
C         19.78671        18.51504         0.82616
C         20.94262         2.00577         1.03017
C         20.94763         3.41583         1.19243
C         22.19533         1.29375         0.87862
C         22.25625         4.11144         1.45408
C         20.98583         6.29952         1.29665
C         20.99229         7.72182         1.22623
C         22.20913         5.59042         1.17915
C         22.24969         8.44039         1.23063
C         21.08718        10.64344         1.07852
C         21.01498        12.07484         1.43443
C         22.30688         9.85966         1.29974
C         22.27837        12.77302         1.92108
C         21.02736        14.98126         1.65333
C         21.00337        16.41826         1.28228
C         22.26582        14.23207         1.53465
C         22.25303        17.10714         1.13754
C         21.02537        19.21253         0.82558
C         22.24943        18.52940         0.94402
C         23.38946         1.96446         0.69210
C         23.41747         3.41638         0.79208
C         24.64511         1.27770         0.43859
C         24.51781         4.12063         0.37759
C         23.39373         6.29088         0.90384
C         23.44336         7.69727         1.07316
C         24.56731         5.56242         0.42349
C         24.83790         8.29537         1.05508
C         23.54976        10.55546         1.73044
C         23.54047        12.05731         1.44500
C         24.97983         9.85839         1.29579
C         24.63592        12.74377         0.97536
C         23.56086        14.96853         1.64222
C         23.48831        16.41304         1.20871
C         24.71105        14.21319         1.02206
C         24.68633        17.11015         1.06195
C         23.49659        19.22474         0.93205
C         24.69193        18.53187         0.99897
C         25.75155         1.95548        -0.00663
C         25.59256         3.41138        -0.41014
C         27.06203         1.34729        -0.11727
C         26.93937         4.13666        -0.24700
C         25.62392         6.27354        -0.13578
C         25.43941         7.77545        -0.27616
C         26.84742         5.61845        -0.50871
C         26.69109         8.49505        -0.69958
C         25.72743        10.60877         0.19959
C         25.76807        12.05895         0.33667
C         26.72582         9.95193        -0.47801
C         26.82664        12.78358        -0.16738
C         25.84194        14.90015         0.70784
C         25.99906        16.36119         1.08009
C         27.09835        14.20189         0.26361
C         27.06375        17.09839         0.28316
C         26.02343        19.22725         1.16816
C         27.09499        18.52091         0.37457
C         28.17782         2.03116        -0.53507
C         28.02724         3.44431        -1.06716
C         29.50895         1.45716        -0.50089
C         29.30661         4.24455        -1.10338
C         28.00398         6.30398        -0.82431
C         27.95697         7.77064        -1.00702
C         29.27357         5.61905        -1.04416
C         29.24401         8.55232        -0.85366
C         27.81569        10.65481        -1.17939
C         27.83587        12.16958        -1.03654
C         29.11719         9.97896        -1.35326
C         29.09390        12.88175        -1.33437
C         27.80760        14.98173        -0.86553
C         28.01162        16.43500        -0.49518
C         29.08388        14.28821        -1.29530
C         29.08506        17.16014        -1.09652
C         28.08128        19.24339        -0.27275
C         29.11355        18.58327        -0.99012
C         30.60531         2.12469        -0.92938
C         30.51545         3.48417        -1.58036
C         31.76875         4.30493        -1.48332
C         30.48911         6.40631        -1.28515
C         30.45814         7.79629        -1.35169
C         31.72867         5.65474        -1.43023
C         31.58579         8.60434        -1.73135
C         30.25279        10.69322        -1.68870
C         30.22642        12.15953        -1.78920
C         31.49703         9.96376        -1.85708
C         31.34081        12.90814        -2.22574
C         30.19373        15.01763        -1.76707
C         30.15641        16.48524        -1.77165
C         31.31880        14.29622        -2.22580
C         31.16051        17.24449        -2.37158
C         30.15788        19.31658        -1.61643
C         31.15206        18.65254        -2.30671
O          7.42751        18.21771         1.34826
O         15.14764         3.76713         2.47956
O         17.66316        17.08776         2.29373
O         20.27911        14.65882         2.91672
O         20.41599        10.27680        -0.18204
O          8.28337         4.09637        -1.94646
O         25.79223        10.06290         2.39800
O         27.07956         8.18078        -2.10443
O         27.34267        11.51370        -2.26283
O         12.72827         5.01844        -1.10320
O         29.43073         8.66407         0.59871
H         30.26649         9.15135         0.75904
O          5.17692         5.89881        -2.54911
H          5.99198         5.44658        -2.85401
O          2.61426         5.92382        -2.75929
H          1.89405         5.43640        -3.20893
O          5.97544        20.41491         0.42487
H          6.17000        20.06550         1.32113
O         28.00186        14.16170         1.40402
H         27.75488        14.89890         2.01134
O         22.25388        12.72250         3.37997
H         23.07846        13.15968         3.69104
O          7.19011         5.25839         1.35129
H          6.92053         6.08391         1.80870
O         14.93007        12.54703        -1.03436
H         14.94017        11.58176        -1.21290
O         27.34740         3.99292         1.14051
H         26.79196         4.59006         1.68587
O         17.20213         8.49276         3.21040
H         17.11157         7.56329         3.51178
O         27.63355         3.33571        -2.47001
H         28.45096         3.06313        -2.96273
O         26.46031        16.34517         2.48770
H         25.73843        15.90004         2.99962
O          7.79999        12.82038        -1.71744
H          7.28089        13.57328        -2.09330
O          6.22223        15.12494        -1.68265
H          5.30834        15.28635        -2.00630
O         30.30027         3.22093        -3.03135
H         30.45246         4.06979        -3.50055
O         26.36917        19.19217         2.56662
H         26.51605        18.24317         2.80261
O         26.88825        14.96999        -1.99381
H         27.36511        15.30503        -2.78138
O          3.64543         5.93429         0.77463
H          2.81792         6.32320         1.12893
O         23.51922        10.35499         3.15498
H         24.49454        10.28927         3.40841
O         11.03078        15.07272         2.35122
H         11.83760        15.55024         2.64190
O         23.88806        15.03261         3.10413
H         23.11970        15.45774         3.54720
O         17.58060        17.98450        -1.27181
H         17.58221        18.79291        -1.82699
O         25.54269         7.65099         2.12839
H         25.94783         8.40941         2.64834
O         25.11725         3.46543        -1.77543
H         25.87328         3.23722        -2.36880
O         10.88026        10.58097         2.61358
H         10.78920         9.63874         2.87231
O          5.74420        16.33681         1.77774
H          6.11889        17.15013         2.19319
O          4.72475        13.99905         1.53384
H          4.79936        14.88167         1.97040
O         24.44706         8.02231        -1.30212
H         24.90668         7.94113        -2.16761
O         22.47010         4.00930         2.91407
H         22.50245         3.05295         3.13106
O          6.97587         9.84387         1.85645
H          6.91453        10.76959         2.17849
H          0.44036         1.42630        -1.25364
H          0.39581         3.89463        -1.41201
H          2.59400         0.20987        -0.96895
H          0.31385         5.81319        -0.78226
H          0.34851         8.21433        -0.41716
H          0.33367        10.13565        -0.93055
H          0.34087        12.56926        -0.89334
H          0.44411        14.41191        -1.44110
H          0.51062        16.85686        -1.70767
H          1.73754        18.96929        -1.66386
H          5.03974         0.23985        -0.82440
H          3.86679        20.21991        -1.31040
H          7.49849         0.25253        -0.60600
H          6.39784        19.82060        -1.50622
H          9.93230         0.24060        -0.19122
H          8.79586        20.13866        -0.96931
H         12.35100         0.25932         0.26188
H         11.20872        20.19872        -0.53853
H         14.77560         0.23410         0.69551
H         13.63292        20.22982        -0.20694
H         17.27011         0.23128         0.77475
H         16.07604        20.25064        -0.01259
H         19.70101         0.23633         0.82739
H         18.62398        20.26547         0.31790
H         22.16411         0.19700         0.79802
H         21.02739        20.30081         0.66506
H         24.69757         0.19591         0.64143
H         23.49666        20.32402         0.88598
H         27.16918         0.30273         0.22040
H         25.95247        20.30166         0.86678
H         29.61922         0.44812        -0.07221
H         28.08210        20.34238        -0.21809
H         31.59664         1.65055        -0.86661
H         32.73621         3.78497        -1.55578
H         32.67705         6.21194        -1.43312
H         32.54389         8.11746        -1.96372
H         32.40120        10.51844        -2.14236
H         32.24059        12.39977        -2.59779
H         32.20525        14.83370        -2.58894
H         31.98443        16.75175        -2.90523
H         30.16463        20.41329        -1.54068
H         31.95807        19.21786        -2.79509
