         276
 CSIRO Nanostructure Databank - Neutral Graphene Oxide Data Set
C        -10.89218         0.70572         1.64468
C        -10.26628         1.79601         0.90374
C         -8.60899         0.77204        -0.14774
C         -7.49177         1.44367         0.23514
C         -6.21540         0.65811         0.29772
C         -4.89771         1.37278         0.32902
C         -3.61889         0.70332        -0.11439
C         -2.32435         1.25582         0.44439
C         -1.08863         0.52658        -0.13159
C          0.20067         1.27662        -0.07047
C          1.51999         0.59867        -0.48217
C          2.46431         1.41656        -1.39517
C          3.80044         0.71853        -1.41025
C          4.92290         1.45630        -0.76801
C          5.90796         0.66993         0.07848
C          7.22546         1.42678         0.31401
C          8.56520         0.70503         0.19798
C          9.59415         1.51240         0.98141
C         10.38977         0.78836         1.97650
C         -9.84204         3.00779         1.32485
C         -8.80875         3.75684         0.48543
C         -7.48485         2.92731         0.54066
C         -6.17320         3.61823         0.33744
C         -4.91776         2.84235         0.06670
C         -3.61030         3.56968         0.04023
C         -2.33734         2.81823         0.37507
C         -1.05665         3.58584         0.27220
C          0.20692         2.77908         0.03432
C          1.17329         3.59712        -0.84009
C          2.44367         2.91242        -1.35814
C          3.72958         3.68120        -1.20315
C          4.74903         2.91772        -0.35612
C          6.12741         3.61343        -0.51427
C          7.29348         2.89354         0.10515
C          8.67804         3.56708        -0.14231
C          9.66105         2.85868         0.79659
C         -8.73550         5.20830         0.97946
C         -7.72321         6.00604         1.27598
C         -6.06474         5.02100        -0.22278
C         -4.82498         5.75021         0.18392
C         -3.64494         5.05515         0.20716
C         -2.36700         5.81336         0.13636
C         -1.05767         5.10099         0.05243
C          0.18597         5.78612        -0.43991
C          1.37101         4.92879        -0.07906
C          2.86019         5.90536        -1.98347
C          3.88797         5.03738        -1.39475
C          4.94002         5.79722        -0.63268
C          6.04341         5.03534        -0.00629
C          7.32618         5.65550         0.60838
C          8.53028         5.06751        -0.05195
C         -7.03116         7.04260         1.74987
C         -6.06008         7.90516         1.00777
C         -4.88405         7.22453         0.33605
C         -3.55210         7.95450         0.54835
C         -2.52069         7.24098        -0.25531
C         -1.80249         7.86932        -1.19579
C          0.19994         6.79192        -1.35164
C          1.28062         7.81804        -1.69822
C          2.64824         7.18493        -1.50070
C          3.77461         7.97848        -0.95562
C          5.12924         7.28221        -0.85146
C          6.06474         7.84792         0.21951
C          7.15230         7.16326         0.67296
C         -5.80742         9.31323         1.44111
C         -4.76858        10.04620         0.96495
C         -3.65788         9.42557         0.23439
C         -2.73500        10.06590        -0.52994
C         -1.60228         9.35736        -1.27246
C         -0.21932         9.67039        -0.67076
C          0.98505         9.06108        -0.81336
C          2.08365         9.67384         0.05861
C          3.51144         9.25598        -0.24395
C          4.59153         9.79758         0.62247
C          5.78507         9.17708         0.75653
C        -10.73296        -0.61193         1.37422
C        -10.00438        -1.36713         0.25149
C         -8.72659        -0.70128        -0.29482
C         -7.46538        -1.46532        -0.49743
C         -6.17597        -0.73935        -0.23184
C         -4.98699        -1.38038        -0.41690
C         -3.65873        -0.73559        -0.44430
C         -2.41600        -1.61412        -0.35342
C         -1.13205        -0.79338        -0.49607
C          0.12619        -1.66666        -0.60890
C          1.40595        -0.88069        -0.87409
C          2.56159        -1.53673        -1.13483
C          3.78982        -0.80092        -1.62957
C          5.12130        -1.46404        -1.20608
C          6.14241        -0.73458        -0.41609
C          7.18504        -1.39421         0.11914
C          8.43586        -0.75683         0.62162
C          8.64311        -0.98257         2.11796
C          9.98709        -0.39108         2.50076
C         -9.71020        -2.77670         0.77384
C         -8.58944        -3.50534         0.53031
C         -7.47976        -2.97399        -0.33439
C         -6.10107        -3.50297         0.02301
C         -5.08447        -2.78806        -0.91500
C         -3.79746        -3.57596        -1.20121
C         -2.53973        -2.73841        -1.46034
C         -1.24278        -3.60676        -1.63014
C          0.07757        -2.90186        -1.59000
C          1.41119        -3.70645        -1.75524
C          2.61597        -3.04983        -1.03519
C          3.93932        -3.70631        -1.47433
C          5.24265        -2.96072        -1.22390
C          6.51990        -3.72808        -0.73212
C          7.52094        -2.84952         0.06719
C          7.87218        -3.30287         1.48976
C          8.46305        -2.46524         2.37113
C         -8.42879        -4.90232         0.89544
C         -7.34303        -5.64527         0.49477
C         -6.25392        -4.98156        -0.32239
C         -4.90826        -5.67211        -0.29017
C         -3.77728        -5.06769        -1.08386
C         -2.47941        -5.87506        -1.35099
C         -1.19797        -5.04425        -1.04786
C          0.07394        -5.85426        -1.35696
C          1.33187        -5.20816        -1.40825
C          2.57276        -5.89929        -1.28632
C          3.89646        -5.20582        -1.34144
C          5.15465        -5.87487        -0.81724
C          6.15477        -5.04252        -0.08801
C          6.85803        -5.59365         0.99887
C          7.81263        -4.77031         1.84021
C         -7.20932        -7.04391         0.82895
C         -6.04774        -7.75383         0.66150
C         -4.80740        -7.06417         0.23204
C         -3.60550        -7.83165        -0.15132
C         -2.50159        -7.24120        -0.68237
C         -1.35623        -8.12507        -1.14749
C         -0.01687        -7.34272        -1.31243
C          1.27811        -8.07509        -0.99122
C          2.59014        -7.34317        -1.04057
C          3.84441        -8.06772        -0.59377
C          5.16069        -7.34181        -0.52767
C          6.31441        -7.93351         0.30493
C          6.75684        -6.94134         1.34696
C         -5.94377        -9.15723         1.00712
C         -4.84435        -9.88256         0.71131
C         -3.70961        -9.35536        -0.12492
C         -2.38090        -9.92135         0.25837
C         -1.22939        -9.37438        -0.26406
C          0.00461       -10.02513        -0.07103
C          1.24958        -9.38722        -0.28566
C          2.39195        -9.94264         0.25426
C          3.61397        -9.11559         0.48786
C          4.84907        -9.90564         0.82371
C          6.05149        -9.32374         0.82448
O         -4.51412        -5.88243         1.10094
O          0.74557        -8.04549        -2.34381
O         -1.79131        -8.58469        -2.41230
O          3.42740        -8.24353        -1.94130
O          2.11454         2.16287        -2.59285
O          7.11588         2.36162         1.43263
O          8.82094        -2.78487        -0.63745
O          0.52473         2.00545         1.19059
O         -4.21382        -4.46572        -2.32932
O          5.66338        -6.85752        -1.80671
O         -3.59364         0.29824        -1.50326
O         -9.83098         1.39723        -0.38085
O         -6.76826         5.37549        -1.16124
O          3.87995         9.28597        -1.66901
O         -0.63685        -3.13342        -2.87176
O         -5.46129         0.86392         1.55542
O         -1.49411         5.73837         1.32516
O         -7.73271        -3.67757        -1.66252
O          4.88707         1.29567        -2.20915
O          5.67482        -2.16349        -2.36747
O         -0.99300         7.09782        -2.04349
O          4.28689         2.91518         0.99847
O         -5.94466         7.82771        -0.44673
O          8.91929         0.69003        -1.20781
O          2.30341         0.45486         0.67886
O         -6.66913         3.35552         1.68213
O          0.16384        -2.38410         0.63094
O          4.89833         5.41434         0.80267
O         -8.29732        -1.08751        -1.64943
O          4.03880        -4.52617        -2.65107
O         -1.67493         3.31861         1.56416
O         -4.26618         3.14186        -1.20574
O         -3.25502         7.84094         1.96485
H         -2.49773         7.22272         2.08364
O          1.78279         9.31032         1.41381
H          2.54368         9.55045         1.98184
O         -5.80329        -3.28714         1.38540
H         -4.98582        -3.77292         1.63300
O         -2.35231         0.91566         1.84007
H         -1.60628         1.39600         2.26914
O         -9.22094         3.84679        -0.88356
H         -8.57200         4.43185        -1.34292
O          2.03517         5.37311        -2.90765
H          1.45847         6.07946        -3.27632
O          1.74995        -3.65158        -3.14498
H          0.94137        -3.84339        -3.66952
O          5.27888         0.44429         1.35557
H          4.83413         1.27884         1.64067
O          9.47986        -1.55882        -0.07409
H          9.38433        -0.16926        -1.36995
O          6.38017         3.69792        -1.93198
H          7.35559         3.63023        -2.09564
O         -5.67526        -2.62758        -2.24666
H         -4.96244        -2.21813        -2.79959
O          7.61506        -0.25969         2.82203
H          7.79298        -0.30858         3.78287
O         -2.42523        -2.24694         0.93204
H         -1.45943        -2.31357         1.20681
O          5.78927         7.43639        -2.12689
H          5.54220         8.32718        -2.46558
O          9.07110         3.32573        -1.51432
H          9.25453         2.35342        -1.61700
O         -4.00814        -9.75102        -1.49374
H         -3.22042        -9.43364        -2.04581
O          7.21224        -4.13560        -1.93652
H          6.54321        -4.37070        -2.61604
O         -1.56559         9.78752        -2.65226
H         -2.44753         9.62805        -3.04852
O         -2.84145        -2.05856        -2.69042
H         -2.05861        -2.17170        -3.28622
O         -2.46886        -6.11843        -2.76361
H         -2.20534        -7.07707        -2.93614
O          1.10917         8.17554        -3.08383
H          0.22515         8.60452        -3.17226
O          2.57121        -3.37643         0.37064
H          1.74346        -2.93373         0.74752
O          0.31657         3.85433        -1.98509
H          0.64946         3.28034        -2.71944
O          3.66635        -0.94661        -3.06222
H          4.42676        -0.48004        -3.47312
O          7.32210         5.21179         1.98619
H          6.40117         5.28602         2.31989
O          7.48200        -8.06711        -0.54884
H          7.32196        -7.48674        -1.33490
O         -1.15009        -4.80429         0.37960
H         -0.58484        -3.98347         0.55792
O        -10.93169        -1.51993        -0.84329
H        -10.40798        -1.54321        -1.67449
O          7.51320        -4.95079         3.22946
H          6.63466        -4.55745         3.40952
O         -6.75669        -4.81268        -1.74339
H         -5.93157        -4.37838        -2.26924
O          3.32739        -8.27648         1.67287
H          3.22452        -8.87273         2.44485
O          2.20200         5.10999         0.78326
H          3.97572         3.82436         1.23470
H         10.59797        -0.88976         3.26918
H         11.32077         1.25900         2.33018
H         10.37403         3.46379         1.37692
H          8.99820         5.63768        -0.87163
H          7.81032         7.67201         1.39804
H          6.55709         9.62741         1.40026
H          4.41657        10.76198         1.12518
H          2.02273        10.80022        -0.03769
H         -0.22999        10.54413         0.00476
H         -2.82423        11.15214        -0.69325
H         -4.71361        11.12278         1.18853
H         -6.58098         9.80409         2.05163
H         -6.97217         7.15581         2.85028
H         -9.72092         5.70646         0.87356
H        -10.08340         3.37568         2.33151
H        -11.47477         0.97337         2.54072
H        -11.25444        -1.29726         2.06400
H        -10.53324        -3.26379         1.32158
H         -9.21277        -5.38104         1.49972
H         -8.09234        -7.54706         1.24943
H         -6.79610        -9.61929         1.52779
H         -4.81089       -10.94799         0.98544
H         -2.31988       -10.76261         0.96747
H          0.00324       -11.04084         0.35460
H          2.30951       -10.90162         0.79045
H          4.72665       -10.94493         1.16626
H          6.94337        -9.89369         1.12469
H          7.32377        -7.29774         2.22014
H          8.84104        -5.19681         1.68372
H          8.76548        -2.86779         3.35272
