         630
 CSIRO Nanostructure Databank - Neutral Graphene Oxide Data Set
C         23.54803        27.10181         1.25043
C         23.72112        28.40743         1.67557
C         23.51625        31.32829         1.26230
C         23.43279        32.67889         1.07766
C         23.27403        35.64645         1.16476
C         23.22948        37.02148         1.16540
C         23.16734        39.96460         1.24037
C         23.16229        41.34046         1.35092
C         23.18156        44.27554         1.63644
C         23.21799        45.65493         1.83607
C         24.94995        24.79610        -1.29466
C         24.15012        25.26581        -0.27055
C         25.61315        27.24618        -0.08965
C         24.44237        26.52703         0.30896
C         25.76840        28.59627         0.35220
C         24.78217        29.18676         1.17977
C         25.94031        31.40188         0.87116
C         24.83688        30.64440         1.55879
C         25.94615        32.89120         1.10773
C         24.57754        33.52739         1.03026
C         25.67043        35.71872         0.65650
C         24.49899        34.94089         0.95714
C         25.61261        37.13883         0.62009
C         24.39014        37.81090         0.92080
C         25.56850        39.99084         0.78214
C         24.36268        39.24892         0.97179
C         25.56859        41.41159         0.93557
C         24.35423        42.09672         1.22606
C         25.61230        44.22139         1.40653
C         24.36229        43.53231         1.41783
C         25.65610        45.61023         1.73209
C         24.44054        46.33805         1.90851
C         25.68576        48.41179         2.25555
C         24.50911        47.78304         2.04347
C         28.03066        22.98965        -2.37226
C         27.98503        24.43012        -2.38879
C         26.11722        25.49599        -1.65494
C         27.85799        27.31713        -1.19929
C         26.56572        26.66364        -0.99194
C         27.97419        28.68389        -0.77641
C         26.90648        29.34186        -0.09241
C         28.08967        31.51815        -0.31206
C         26.95923        30.76052         0.17953
C         28.07113        32.94304        -0.25189
C         26.95467        33.63896         0.28356
C         27.94220        35.82402        -0.30155
C         26.87159        35.05135         0.23860
C         27.95580        37.23180        -0.18934
C         26.78746        37.89968         0.29277
C         27.98376        40.06032         0.21721
C         26.77908        39.31542         0.42728
C         28.00007        41.47139         0.43929
C         26.80012        42.13883         0.80886
C         28.05002        44.26303         1.01486
C         26.82313        43.53948         1.08279
C         28.08781        45.63782         1.43480
C         26.90739        46.27608         1.84723
C         28.23214        48.34755         2.42269
C         26.92882        47.60651         2.55653
C         28.32444        49.68574         2.90188
C         30.31655        23.02396        -1.52360
C         29.11176        22.31310        -1.87499
C         30.31803        24.45207        -1.93629
C         29.04776        25.21254        -2.00385
C         30.27464        27.34417        -1.75416
C         29.03754        26.65121        -1.69976
C         30.34261        28.74835        -1.50403
C         29.18134        29.41987        -1.03138
C         30.38801        31.58586        -1.17917
C         29.21138        30.84246        -0.85064
C         30.35859        33.01221        -1.15130
C         29.16703        33.67205        -0.79235
C         30.35785        35.92683        -1.20651
C         29.05324        35.12059        -0.93501
C         30.36150        37.34614        -0.83633
C         29.16242        37.98869        -0.45227
C         30.38727        40.13593        -0.35816
C         29.17659        39.39342        -0.18306
C         30.41184        41.55358        -0.12005
C         29.22102        42.21288         0.28707
C         30.45381        44.36003         0.43392
C         29.23984        43.61320         0.58444
C         30.49301        45.74542         0.87016
C         29.33652        46.35023         1.42905
C         30.66405        48.34159         2.03821
C         29.40242        47.68553         1.96127
C         30.81399        49.60479         2.84872
C         29.51934        50.33586         3.03045
C         32.73573        20.39983        -0.53568
C         31.63233        21.00004        -1.02769
C         32.67998        23.30141        -0.70163
C         31.49979        22.43442        -1.12260
C         32.81020        24.58153        -1.48771
C         31.59344        25.17956        -2.07510
C         32.82431        27.36260        -2.06001
C         31.51130        26.67621        -2.36106
C         32.77057        28.82424        -2.19428
C         31.55024        29.50164        -1.72850
C         32.83789        31.64073        -1.53560
C         31.58865        30.89586        -1.53464
C         32.80823        33.03666        -1.32397
C         31.58697        33.76407        -1.30250
C         32.83902        35.91635        -1.15415
C         31.61097        35.17767        -1.21028
C         32.82974        37.35007        -1.14976
C         31.58443        38.06434        -0.94460
C         32.75197        40.25759        -1.12491
C         31.56352        39.46903        -0.77133
C         32.82031        41.67686        -0.74962
C         31.62930        42.30289        -0.28538
C         32.81200        44.48425        -0.38071
C         31.61047        43.71145        -0.04474
C         32.86178        45.95835         0.11010
C         31.70534        46.47844         0.83977
C         33.09431        48.42140         1.52844
C         31.81334        47.74237         1.48440
C         33.14635        49.80014         1.97406
C         31.98483        50.44500         2.39566
C         33.06179        52.63222         2.27429
C         31.93762        51.88651         2.40693
C         35.15743        19.06355         0.41606
C         35.15946        20.36944        -0.01157
C         33.88850        21.18403         0.05269
C         35.19537        23.18255        -0.82392
C         33.99365        22.55501        -0.58741
C         35.24438        24.58489        -1.23400
C         34.00430        25.26594        -1.54251
C         35.30474        27.37194        -1.95922
C         34.01726        26.68544        -1.90751
C         35.34959        28.80022        -2.05456
C         34.09810        29.57472        -2.14510
C         35.33158        31.60479        -1.48787
C         34.09294        30.96676        -1.68120
C         35.35752        33.01064        -1.04690
C         34.04476        33.76446        -1.00884
C         35.31081        35.92455        -1.13985
C         34.07556        35.23121        -1.11293
C         35.30567        37.35176        -1.22243
C         34.06312        38.03738        -1.21876
C         35.32362        40.24060        -1.28207
C         34.05465        39.49933        -1.37129
C         35.26977        41.66561        -1.19215
C         34.06270        42.36956        -0.89497
C         35.27061        44.54243        -0.63782
C         34.08940        43.79629        -0.63876
C         35.33431        45.90512        -0.17040
C         34.17370        46.57035         0.32563
C         35.59972        48.46033         1.20709
C         34.24624        47.80723         1.01395
C         35.53272        49.96749         1.36331
C         34.37468        50.55933         1.81226
C         35.58356        52.78778         1.93518
C         34.40330        51.95973         2.38845
C         35.58616        54.16392         2.13160
C         37.59765        18.89170         0.45391
C         36.35210        18.32174         0.62608
C         37.70245        20.20894        -0.19043
C         36.40131        20.99452        -0.45226
C         37.67510        23.09488        -0.80398
C         36.47029        22.46811        -0.65188
C         37.73574        24.43371        -1.51816
C         36.45558        25.23747        -1.45102
C         37.78959        27.24668        -2.15513
C         36.49110        26.61482        -1.82940
C         37.81615        28.79107        -2.24101
C         36.55821        29.51724        -1.98256
C         37.80321        31.65116        -1.52854
C         36.56291        30.92646        -1.71331
C         37.80643        33.07768        -1.32596
C         36.59278        33.79383        -1.20292
C         37.78865        35.94304        -1.31581
C         36.56362        35.20687        -1.17982
C         37.76485        37.36363        -1.45688
C         36.54694        38.08042        -1.39670
C         37.77197        40.27426        -1.69494
C         36.51823        39.52219        -1.44863
C         37.81727        41.71770        -1.38598
C         36.51511        42.42091        -1.40640
C         37.80703        44.55464        -0.80826
C         36.51929        43.92465        -1.11901
C         37.79169        45.89577        -0.38287
C         36.58899        46.57740        -0.13321
C         37.90460        48.72346         0.28660
C         36.55515        48.07501         0.08013
C         37.91732        50.10992         0.68263
C         36.74791        50.73576         1.17107
C         37.95675        52.91222         1.26163
C         36.76137        52.14504         1.45708
C         37.92551        54.32511         1.48612
C         36.73746        54.92912         1.88503
C         40.03285        16.27808         1.62508
C         38.85690        16.88379         1.23716
C         40.00572        19.03896         1.00957
C         38.82615        18.26387         0.90506
C         40.00122        20.44186         0.63527
C         38.92561        20.99902        -0.00374
C         40.15888        23.17762        -0.26860
C         38.99394        22.32809        -0.72753
C         40.07531        24.68498        -0.36443
C         38.97715        25.25968        -1.24400
C         40.31733        27.26320        -1.81035
C         39.03420        26.52154        -1.75465
C         40.34583        28.76435        -1.92488
C         39.11096        29.61671        -2.24612
C         40.22219        31.65849        -1.22765
C         39.03113        30.95962        -1.53879
C         40.25854        33.07399        -1.15997
C         39.03786        33.80593        -1.26836
C         40.28386        35.95417        -1.24977
C         39.03142        35.23154        -1.29636
C         40.30085        37.36074        -1.38113
C         39.05592        38.00786        -1.94138
C         40.31478        40.26245        -1.53695
C         39.06560        39.53578        -1.87475
C         40.29581        41.69700        -1.43867
C         39.01955        42.40328        -1.34957
C         40.24520        44.53039        -1.05966
C         39.03945        43.84141        -1.06038
C         40.23478        45.98727        -0.88094
C         39.10694        46.55552        -0.05170
C         40.33936        48.75935        -0.00231
C         39.07353        48.06226        -0.01820
C         40.34895        50.17168         0.25610
C         39.14898        50.84512         0.59895
C         40.38007        52.97546         0.63047
C         39.16380        52.24781         0.85906
C         40.45308        54.40239         1.01436
C         39.18672        55.11602         1.43412
C         40.31781        57.27294         1.01766
C         39.18040        56.58438         1.28446
C         42.45750        16.38402         2.07368
C         41.23256        17.02718         1.71426
C         42.45016        19.16989         1.52484
C         41.22496        18.42032         1.42599
C         42.46574        20.56976         1.26192
C         41.15830        21.29947         1.07317
C         42.49329        23.35888         0.51831
C         41.26293        22.61589         0.33266
C         42.57880        24.68971        -0.01947
C         41.43796        25.28649        -0.57908
C         42.85459        27.30225        -1.16768
C         41.55012        26.53041        -1.32296
C         42.81947        28.77061        -1.26929
C         41.44946        29.38507        -1.08474
C         42.75709        31.64235        -1.00443
C         41.46331        30.89829        -0.99808
C         42.72175        33.10649        -1.09720
C         41.51709        33.79342        -1.06354
C         42.72532        35.96908        -1.06483
C         41.51450        35.24608        -1.08508
C         42.74362        37.38380        -1.13298
C         41.50485        38.09735        -1.27506
C         42.72164        40.28388        -0.98503
C         41.48930        39.54120        -1.31457
C         42.75138        41.74721        -1.21492
C         41.51867        42.41365        -1.39452
C         42.77897        44.61904        -1.16833
C         41.50558        43.91003        -1.60782
C         42.80049        45.99440        -0.96585
C         41.53448        46.75497        -0.87947
C         42.83007        48.77179         0.04678
C         41.53660        48.09050        -0.27904
C         42.76219        50.25028        -0.23169
C         41.56234        50.91627         0.00698
C         42.70088        53.14214        -0.26877
C         41.50394        52.35426         0.10044
C         42.77100        54.56804         0.10731
C         41.61081        55.20838         0.57944
C         42.73431        57.35064         0.38424
C         41.57201        56.61478         0.70412
C         43.62415        17.09176         2.15615
C         44.84569        19.25915         2.10179
C         43.65940        18.50442         1.90345
C         44.84192        20.68248         1.91006
C         43.63731        21.32208         1.41574
C         44.85676        23.46947         1.21560
C         43.64896        22.73787         1.07098
C         44.97474        24.79466         0.70962
C         43.84249        25.39683         0.06436
C         45.15242        27.46736        -0.27206
C         43.95381        26.71484        -0.40074
C         45.21573        28.81135        -0.74414
C         43.98841        29.47374        -1.11656
C         45.27840        31.66480        -1.14979
C         44.00249        30.93566        -1.48270
C         45.28250        33.06232        -1.13062
C         44.00972        33.77719        -0.90698
C         45.27697        35.96431        -1.19994
C         44.01497        35.28115        -0.87562
C         45.22782        37.36885        -1.31762
C         44.01083        38.05613        -1.16144
C         45.30648        40.23220        -1.09510
C         44.02891        39.50622        -0.93618
C         45.24823        41.70627        -0.90351
C         43.97959        42.45050        -1.12173
C         45.23839        44.61500        -1.11894
C         44.00925        43.87823        -1.13725
C         45.27670        46.01137        -0.97453
C         44.03791        46.72102        -0.79531
C         45.28614        48.82393        -0.46605
C         44.05227        48.09347        -0.50749
C         45.27693        50.25028        -0.42798
C         43.98082        50.91737        -0.82261
C         45.24596        53.16436        -0.46553
C         43.97343        52.43512        -0.66548
C         45.21373        54.58119        -0.37760
C         43.95472        55.29978        -0.14213
C         43.90424        56.70675         0.00746
C         47.12261        19.34776         3.00075
C         46.07055        18.63297         2.54644
C         47.07186        20.84284         3.13173
C         45.96589        21.44393         2.27389
C         47.26097        23.65524         2.11027
C         45.96402        22.88211         2.00182
C         47.47027        24.79760         1.13645
C         46.20323        25.52274         0.77070
C         47.57262        27.54562         0.25142
C         46.30754        26.83333         0.27965
C         47.63816        28.86555        -0.28328
C         46.44128        29.52800        -0.70469
C         47.71446        31.65481        -0.92916
C         46.48033        30.93797        -0.97087
C         47.71818        33.05581        -1.13239
C         46.50899        33.79667        -1.16277
C         47.73767        35.98527        -1.28480
C         46.50074        35.24432        -1.25151
C         47.76380        37.37799        -1.29687
C         46.49017        38.10773        -1.68761
C         47.78428        40.25197        -1.45126
C         46.47400        39.56248        -1.29527
C         47.80691        41.74027        -1.40622
C         46.53542        42.45040        -1.06238
C         47.83091        44.62978        -1.16357
C         46.49896        43.90401        -1.34892
C         47.75123        46.01945        -0.74540
C         46.53471        46.70329        -0.76807
C         47.74180        48.84623        -0.34546
C         46.51798        48.12286        -0.50335
C         47.70224        50.26098        -0.22005
C         46.47717        50.97882        -0.32720
C         47.67916        53.18443        -0.30011
C         46.46916        52.45096        -0.35989
C         47.64578        54.58826        -0.36214
C         46.44130        55.27524        -0.36903
C         49.68140        20.71486         2.64902
C         48.46425        21.50303         2.92232
C         49.82116        23.51255         2.00256
C         48.53551        22.95066         2.48492
C         49.89457        24.88968         1.65929
C         48.61325        25.70257         1.63075
C         49.97074        27.61337         0.70791
C         48.73494        26.96031         0.80132
C         50.06195        28.86432         0.07012
C         48.89351        29.54472        -0.36293
C         50.18058        31.63576        -0.78529
C         48.94813        30.93626        -0.74585
C         50.25179        33.03819        -0.95208
C         49.00931        33.74176        -1.30730
C         50.27214        35.95460        -1.02579
C         49.02165        35.25776        -1.36270
C         50.24899        37.37118        -0.95958
C         49.01092        38.09421        -1.15686
C         50.24659        40.23319        -0.95704
C         49.03785        39.50663        -1.17925
C         50.25569        41.67632        -0.89812
C         49.06205        42.44512        -1.05995
C         50.26465        44.53744        -0.60839
C         49.05218        43.82999        -0.88828
C         50.25525        45.95397        -0.44002
C         48.95698        46.64847        -0.10283
C         50.22439        48.82527        -0.26434
C         48.98796        48.14200        -0.28665
C         50.24243        50.25702        -0.19916
C         48.97116        50.96709         0.01178
C         50.24733        53.11538        -0.44505
C         48.97369        52.49646        -0.06481
C         50.85853        21.31133         2.32959
C         52.26787        23.37293         1.93026
C         50.98970        22.73735         2.09591
C         52.33617        24.77558         1.67616
C         51.12813        25.51462         1.50079
C         52.49972        27.56527         0.95322
C         51.16764        27.02388         1.41394
C         52.60032        28.81925         0.32723
C         51.38146        29.43693        -0.24497
C         52.72838        31.60786        -0.76054
C         51.43206        30.86156        -0.76136
C         52.71122        33.07603        -0.65295
C         51.47321        33.76934        -0.83814
C         52.70300        35.92327        -0.65229
C         51.47188        35.21560        -0.85147
C         52.70161        37.35079        -0.64357
C         51.47424        38.08362        -0.78471
C         52.69756        40.22687        -0.55353
C         51.47020        39.51294        -0.76367
C         52.67463        41.63360        -0.46299
C         51.47127        42.37479        -0.64899
C         52.71772        44.53828        -0.45075
C         51.48440        43.80844        -0.55981
C         52.71387        45.96486        -0.42862
C         51.46589        46.67164        -0.38863
C         52.70025        48.82377        -0.30373
C         51.46759        48.10885        -0.30594
C         52.69956        50.25305        -0.28692
C         51.44696        50.97133        -0.26082
C         51.40631        52.40602        -0.43901
C         54.70172        23.30998         2.09386
C         53.48925        22.66282         2.11469
C         54.79606        24.71536         1.87401
C         53.60900        25.44428         1.64312
C         54.93088        27.50760         1.23930
C         53.67891        26.85079         1.30042
C         55.00139        28.87042         0.79986
C         53.85078        29.47975         0.23577
C         55.15003        31.65288         0.06392
C         53.97708        30.85034        -0.31071
C         55.14587        33.05233        -0.11784
C         53.92531        33.76719        -0.43529
C         55.15333        35.91043        -0.28881
C         53.92842        35.20390        -0.45274
C         55.16490        37.33995        -0.37085
C         53.93873        38.05666        -0.51685
C         55.18273        40.16413        -0.46389
C         53.94752        39.48847        -0.48859
C         55.20513        41.61894        -0.25439
C         53.90420        42.38280        -0.17962
C         55.18102        44.53771        -0.35741
C         53.94494        43.84175        -0.36790
C         55.18085        45.96854        -0.37369
C         53.94625        46.67791        -0.37343
C         55.17823        48.82258        -0.32568
C         53.94683        48.11295        -0.33469
C         55.13972        50.24103        -0.28039
C         53.94343        50.93011        -0.26536
C         57.28501        24.72423         2.19489
C         56.07845        25.39785         1.88799
C         57.37200        27.47197         1.64820
C         56.13213        26.79360         1.60641
C         57.43528        28.97550         1.53610
C         56.23407        29.59506         0.86513
C         57.56548        31.67285         0.62954
C         56.30618        30.95515         0.52665
C         57.57476        33.08427         0.42871
C         56.36249        33.78801         0.10530
C         57.61044        35.92239         0.10699
C         56.37503        35.19922        -0.03560
C         57.62948        37.34431        -0.04421
C         56.40530        38.04556        -0.29003
C         57.67337        40.16842        -0.37511
C         56.42448        39.46392        -0.42001
C         57.72654        41.60809        -0.68043
C         56.40586        42.38735        -0.65393
C         57.66023        44.51681        -0.49940
C         56.42802        43.83502        -0.44977
C         57.65790        45.95365        -0.44092
C         56.42470        46.67649        -0.39351
C         57.68249        48.77544        -0.38127
C         56.43368        48.10198        -0.36743
C         58.49669        25.39619         2.22170
C         59.82135        27.50798         1.98488
C         58.55445        26.78143         1.95407
C         59.92368        28.76821         1.52102
C         58.73308        29.44921         0.87817
C         59.97408        31.68422         0.92167
C         58.76916        30.97054         0.86257
C         59.98958        33.06784         0.79550
C         58.80642        33.79271         0.54371
C         60.01985        35.97094         0.51962
C         58.81911        35.23074         0.38611
C         60.03716        37.34233         0.37930
C         58.85280        38.06328         0.09102
C         60.08543        40.26021         0.01254
C         58.87254        39.49773        -0.08679
C         60.11675        41.62974        -0.12891
C         58.95109        42.37884        -0.45315
C         60.12885        44.56327        -0.49792
C         58.91609        43.79839        -0.50943
C         60.11893        45.93264        -0.48315
C         58.88782        46.66226        -0.44624
C         58.87498        48.07841        -0.41592
O         47.82390        41.06116        -2.70572
O         42.16835        31.23016         0.27424
O         36.42824        43.40687        -2.49036
O         38.36245        40.06091        -3.05281
O         40.14790        54.62819         2.44100
O         32.56666        45.60661        -1.28127
O         47.25755        44.34037        -2.50044
O         37.76969        27.94014        -3.43294
O         43.10495        53.01538        -1.70075
O         34.67791        33.25182         0.23549
O         40.64525        46.69905        -2.09258
O         33.22568        39.97021        -2.48850
O         51.45920        29.73394        -1.68654
O         56.98971        41.95460        -1.91423
O         31.07682        24.44026        -3.25751
O         29.41536        35.60027        -2.26992
O         40.66704        27.94831        -3.06927
O         53.65569        31.05250        -1.73654
O         43.32182        39.88490         0.30154
O         48.98883        51.80634         1.22632
O         42.57702        26.51548        -2.37568
O         44.06699        34.51399         0.38266
O         46.31411        23.78979         3.17233
O         37.11315        20.27921        -1.53573
O         46.03298        42.15569         0.27719
O         54.64365        41.98339         1.04637
O         33.36673        29.37666        -3.40945
O         49.11789        34.45450        -2.59688
O         48.65730        22.58001         3.89715
O         26.77201        25.00438        -2.79127
O         31.35699        26.87119        -3.79180
H         31.14391        25.98406        -4.17484
O         48.78173        46.43131         1.35897
H         49.49806        46.92275         1.81538
O         26.38205        33.06681         2.53224
H         27.31742        32.77231         2.58112
O         43.87922        50.63806        -2.26021
H         43.31908        51.35931        -2.63581
O         37.84319        24.06999        -2.93649
H         38.56142        23.38958        -3.00159
O         46.49972        38.12695        -3.15922
H         47.21910        38.73093        -3.44646
O         34.62004        51.75702         3.83673
H         33.84048        51.26594         4.17642
O         40.78243        21.72541         2.44234
H         41.59088        22.07457         2.87571
O         31.20234        49.15697         4.21908
H         30.44959        48.63039         4.56616
O         39.42955        46.14329         1.31950
H         38.72295        46.48702         1.90799
O         25.06210        30.71267         3.00440
H         25.34540        31.64083         3.19956
O         39.28992        30.04482        -3.62345
H         39.30812        29.22073        -4.16454
O         36.18027        47.92858         2.43483
H         35.65607        48.27244         3.18891
O         32.33269        23.73396         0.68569
H         33.06852        24.30142         1.00361
O         41.07203        28.93028         0.26291
H         41.53492        29.52848         0.89759
O         35.99956        48.65662        -1.13096
H         36.55436        48.37967        -1.88982
O         43.89493        30.99483        -2.94272
H         44.64561        30.49507        -3.32763
O         43.01451        48.66255         1.52284
H         42.19431        49.00300         1.94160
O         39.62333        25.10584         0.99128
H         40.20108        24.65501         1.64504
O         26.83453        47.27693         4.00309
H         25.99956        46.77548         4.12576
O         33.58453        21.39839         1.46713
H         32.86069        22.07081         1.50086
O         39.29338        21.94541        -2.12559
H         38.61160        21.26696        -2.36218
O         51.02029        27.48084         2.81850
H         51.75973        27.08789         3.33090
O         41.43885        44.12563        -3.05933
H         41.21959        45.08002        -3.18907
O         47.93576        24.14599        -0.08436
H         47.97743        24.82027        -0.79547
O         58.68632        29.02112        -0.50948
H         59.49072        29.35147        -0.96015
O         46.67944        21.12074         4.50665
H         46.95535        22.05294         4.68496
O         39.11754        37.65441        -3.36144
H         38.62632        38.36305        -3.84257
O         57.46249        29.49228         2.90376
H         56.66750        29.15723         3.36835
O         48.32343        26.12212         2.98290
H         49.06774        26.70138         3.26824
H         22.68957        26.51064         1.59991
H         23.00984        28.85269         2.38442
H         22.59849        30.72206         1.24771
H         22.43747        33.12700         0.93506
H         22.35364        35.08501         1.37614
H         22.26920        37.51239         1.37271
H         22.21956        39.42549         1.36842
H         22.21140        41.84614         1.56511
H         22.20404        43.77555         1.61986
H         22.27818        46.21339         1.95377
H         24.69212        23.87991        -1.84156
H         23.24918        24.71861         0.03952
H         25.71488        49.50784         2.33586
H         23.57867        48.35921         1.92644
H         27.12569        22.44477        -2.67336
H         27.40175        50.21071         3.18905
H         29.05845        21.22219        -1.75711
H         29.53608        51.34540         3.46443
H         32.77301        19.30181        -0.49955
H         30.80628        20.37453        -1.39643
H         32.98845        53.72785         2.23340
H         30.95804        52.38391         2.45260
H         34.21479        18.60032         0.73920
H         34.69613        54.67328         2.52448
H         36.25851        17.32523         1.07855
H         36.70406        56.00979         2.07929
H         40.05367        15.20377         1.85737
H         37.94235        16.28169         1.15394
H         40.28889        58.37120         0.95594
H         38.23291        57.12973         1.40204
H         42.44715        15.30451         2.28222
H         42.71438        58.44747         0.45825
H         44.54344        16.56358         2.43917
H         44.79415        57.31672        -0.19740
H         47.99062        18.81515         3.41360
H         46.14426        17.53698         2.54475
H         48.58269        55.16017        -0.32776
H         46.46115        56.37197        -0.33493
H         49.64012        19.61821         2.70226
H         50.26184        54.16872        -0.75852
H         51.73995        20.67222         2.17844
H         52.33708        52.93030        -0.69510
H         55.61369        22.71971         2.25240
H         53.46990        21.58091         2.30165
H         56.07358        50.81747        -0.25625
H         53.97189        52.02678        -0.22222
H         57.27501        23.65026         2.42306
H         57.71727        49.87263        -0.36209
H         59.42141        24.85180         2.46109
H         60.70578        26.98409         2.37891
H         60.90667        29.26220         1.51610
H         60.92603        31.16045         1.08385
H         60.95385        33.58557         0.87591
H         60.96399        35.45787         0.74240
H         60.99281        37.86950         0.49415
H         61.02647        39.74616         0.24714
H         61.07341        42.14937         0.01911
H         61.09351        44.03890        -0.53189
H         61.06533        46.49235        -0.49665
H         59.83015        48.62301        -0.42203
