         276
 CSIRO Nanostructure Databank - Neutral Graphene Oxide Data Set
C        -11.25241         0.72367        -0.23128
C        -10.15458         1.36873         0.58772
C         -8.79625         0.78925         0.19432
C         -7.61535         1.39978         0.87788
C         -6.29351         0.69464         0.81355
C         -5.07709         1.50233         1.12834
C         -3.78507         0.74322         1.21979
C         -2.45758         1.45288         1.17001
C         -1.30107         0.72376         1.12287
C         -0.01395         1.46224         1.07534
C          1.27925         0.75274         0.83654
C          2.58618         1.50781         0.83862
C          3.89003         0.78427         0.74901
C          5.20036         1.57432         0.68735
C          6.45502         0.77187         1.02468
C          7.73791         1.51705         1.03153
C          8.76945         1.13043        -0.06064
C         10.18984         1.66477         0.14037
C         11.23615         0.71365         0.45894
C        -10.06645         2.86969         0.38369
C         -8.92386         3.55755         0.58828
C         -7.70182         2.88455         1.11672
C         -6.43343         3.62864         1.41824
C         -5.17636         2.80666         1.54922
C         -4.19747         3.31499         2.57396
C         -2.33948         2.92355         0.88272
C         -1.19546         3.71448         1.50271
C          0.04944         2.83772         1.66354
C          1.41047         3.40022         1.80719
C          2.56731         2.92462         1.27299
C          3.85664         3.69940         1.42786
C          5.14560         2.97505         1.25660
C          6.42434         3.69321         0.99840
C          7.58307         3.00315         1.15812
C          9.33191         3.96834         0.05131
C         10.44246         2.99886        -0.07815
C         -8.86886         5.06787         0.52664
C         -7.49742         5.60061         0.16649
C         -6.33115         5.08038         0.96708
C         -4.99233         5.78416         0.78342
C         -3.67060         5.29507         1.25662
C         -2.43898         5.91281         0.90074
C         -1.17111         5.35268         1.55226
C          0.09704         5.89070         0.85621
C          1.32223         5.51263         1.29289
C          2.59123         5.66012         0.46965
C          3.85328         5.24062         1.27804
C          5.06534         5.75862         0.47208
C          6.35806         5.01452         0.33050
C          7.52103         5.68664        -0.36678
C          8.78877         4.97877        -0.68132
C         -7.40608         6.66780        -0.65064
C         -6.16692         7.51622        -0.76166
C         -4.92405         6.72212        -0.39268
C         -3.59538         7.28262        -0.81415
C         -2.41208         6.99040         0.00488
C         -1.21921         7.83456        -0.20091
C          0.09250         7.18382         0.09556
C          1.32147         7.52406        -0.74148
C          2.60960         7.08253        -0.04595
C          3.71415         7.83698         0.13629
C          5.11157         7.28025         0.27377
C          5.92366         7.58975        -1.04159
C          7.27085         6.87950        -0.98281
C         -6.00333         8.19817        -2.09736
C         -4.80475         8.61831        -2.54577
C         -3.56996         8.40469        -1.78951
C         -2.44304         9.12000        -2.01751
C         -1.27839         9.10102        -1.05768
C          0.05816         9.45882        -1.68384
C          1.26161         8.90493        -1.39720
C          2.49289         9.43847        -2.04067
C          3.66388         9.53259        -1.36680
C          5.04414         9.86657        -1.76122
C          6.07214         9.05900        -1.42391
C        -11.17063        -0.55611        -0.62343
C         -9.98705        -1.39675        -0.20887
C         -8.70158        -0.57981        -0.36273
C         -7.36487        -1.30468        -0.55333
C         -6.18399        -0.66008         0.18980
C         -5.02156        -1.35595         0.29040
C         -3.80383        -0.74421         0.89413
C         -2.51391        -1.48552         0.76338
C         -1.21751        -0.72005         0.64137
C          0.03294        -1.39815         1.30583
C          1.35071        -0.77477         0.74333
C          2.60763        -1.35186         1.49458
C          3.94172        -0.64923         1.18495
C          5.25989        -1.38102         0.97794
C          6.37523        -0.58482         0.45025
C          7.40158        -1.09397        -0.42741
C          8.77833        -0.37660        -0.58081
C          9.84353        -1.28813         0.03252
C         11.04385        -0.63565         0.52267
C         -9.86035        -2.75551        -0.82869
C         -8.67123        -3.46256        -0.61872
C         -7.48575        -2.79501        -0.27486
C         -6.24996        -3.52751         0.16808
C         -4.96773        -2.75667        -0.32015
C         -3.68126        -3.53396         0.01746
C         -2.49412        -2.82585         0.56085
C         -1.25511        -3.63776         0.80964
C          0.03812        -2.94756         1.21438
C          1.43827        -3.66581         1.32065
C          2.69199        -2.81498         1.09687
C          3.97152        -3.57574         0.87551
C          5.34468        -2.90145         0.95348
C          6.18460        -3.40249        -0.22775
C          7.33585        -2.57169        -0.74909
C          8.69297        -3.24911        -1.06738
C          9.76805        -2.63911        -0.16122
C         -8.76498        -4.97932        -0.71433
C         -7.44705        -5.72520        -0.62577
C         -6.24772        -4.99746        -0.23502
C         -5.05801        -5.66573        -0.23015
C         -3.74040        -5.02285         0.01779
C         -2.60720        -5.88415         0.60376
C         -1.32139        -5.08420         0.40253
C         -0.32449        -5.64963        -0.30258
C          1.65293        -4.77554         0.31694
C          2.69472        -5.63808         0.36762
C          3.99062        -5.12883         1.00684
C          5.20342        -5.76110         0.27295
C          6.20686        -4.87889        -0.43021
C          7.48281        -5.50613        -0.88232
C          8.60171        -4.76700        -1.04436
C         -7.43176        -7.06477        -0.93477
C         -6.23159        -7.91345        -0.77984
C         -4.99542        -7.10934        -0.48125
C         -3.65738        -7.56376        -0.88096
C         -2.53964        -7.15278        -0.25952
C         -1.30748        -7.93692        -0.57691
C         -0.08574        -7.10587        -0.54011
C          1.23050        -7.52619         0.09904
C          2.56724        -6.93782        -0.42104
C          3.75679        -7.90441        -0.15438
C          5.09424        -7.15098        -0.27589
C          6.12946        -7.65307        -1.29204
C          7.51881        -7.03097        -1.00773
C         -6.16507        -9.33314        -1.26943
C         -5.09500       -10.17363        -1.29311
C         -3.68792        -9.73404        -1.21340
C         -2.59930       -10.21646        -0.56382
C         -1.27272        -9.47186        -0.30589
C         -0.08710       -10.04908        -1.11499
C          1.20783        -9.88140        -0.86270
C          2.50683       -10.07353        -0.65225
C          3.67701        -9.18232        -1.09711
C          5.02322        -9.87646        -1.01402
C          6.15433        -9.16987        -1.15822
O          3.22256        -3.03174        -0.24456
O          3.62619         9.22341         0.01417
O         -5.65017        -7.87927         0.58994
O         -0.43272         8.18448         1.01395
O         -3.93286         2.69247         3.57357
O         -0.84321         3.08843         2.77213
O          4.60261         3.21151         2.60442
O          0.73362        -4.84930        -0.73926
O          7.30269         0.79838         2.23474
O         -3.90256        -0.26283         2.28197
O         -5.88105         6.11159         1.91102
O         -3.24503        -4.31574        -1.17428
O          0.53591         1.37769        -0.28794
O          1.40862         4.66206         2.41570
O         -3.12142         3.43894         0.07296
O          5.47299        -3.99728        -1.34976
O          1.14254        -8.00902         1.23185
O          5.24623         4.92171        -0.70222
O          4.85112        -0.84735         2.30715
O         -3.53910        -8.50353        -1.90454
O         -3.61473         4.58794         2.43065
O         -0.85919        -3.48484         2.23810
O         -4.20878         6.07817        -1.47080
O         -7.17577         0.63702         2.02746
O         -7.39652         3.34228         2.48011
O          3.15874         1.09689        -0.47606
O          6.88742        -1.61475        -1.72204
O          5.74953        -6.88362         1.01205
O         -8.74312         0.59499        -1.25367
O         -0.58808        -7.56629        -1.82258
O          9.11477        -0.29970        -1.93889
O          8.73982         3.75051         1.32097
O         -1.09727        -0.64333        -0.79353
H         -0.33555        -0.05276        -1.02332
O         -1.04670        -9.66643         1.09641
H         -0.17325        -9.27471         1.33929
O        -10.40586         1.07681         1.98703
H         -9.64956         1.41021         2.51776
O         -9.84459         5.60172        -0.35333
H        -10.72545         5.52491         0.06297
O          3.72506        -8.37029         1.19649
H          2.79621        -8.56292         1.46830
O          8.41076        -7.42213        -2.04556
H          7.94570        -7.24346        -2.89235
O          1.46180        -1.13336        -0.63269
H          2.12643        -0.54073        -1.05686
O         -5.02211        -2.61568        -1.74029
H         -4.41300        -3.28410        -2.13313
O          1.19862         6.62581        -1.90927
H          1.87251         6.90897        -2.56577
O          3.51476        -8.84929        -2.48487
H          2.69844        -8.31012        -2.59945
O          3.85032         5.86511         2.56645
H          4.14545         5.19220         3.22125
O         -9.46323        -5.34088        -1.91148
H         -8.97266        -4.97326        -2.67510
O          6.05008        -3.31213         2.13441
H          5.70188        -2.80262         2.89804
O         -2.88823        -6.15772         1.97483
H         -2.30151        -6.87341         2.29329
O         -7.08545        -1.20196        -1.97412
H         -7.41947        -0.32586        -2.27389
O          9.06468        -2.92093        -2.40997
H          9.08421        -1.91579        -2.47056
O          5.76235        -7.27650        -2.62774
H          4.94602        -7.78701        -2.86768
O         -6.31115         8.55509         0.24950
H         -6.41537         8.10679         1.11923
O         -6.17364        -3.48278         1.62127
H         -7.01034        -3.83289         1.99268
O          2.48678         4.70819        -0.61410
H          1.92284         5.12425        -1.31682
O          2.39141        -1.21774         2.89756
H          3.25682        -1.33010         3.35134
O         -1.57101        10.20159        -0.14549
H         -1.00771        10.06104         0.65000
O          5.80436         7.86572         1.38493
H          5.28313         7.67943         2.19588
O          1.53695        -4.21940         2.63834
H          0.62364        -4.32233         2.99455
O          2.46352        -6.64299        -1.81946
H          1.89541        -5.84349        -1.92657
O          5.16967         7.04621        -2.15422
H          5.19837         6.05971        -2.06496
O          8.22652         1.86744        -1.17668
H          8.46140         1.30091        -1.96864
O          5.47435         1.79944        -0.72099
H          4.66685         2.16500        -1.14745
O         -1.17043         5.71276         2.92010
H         -0.41371         5.25984         3.35479
O        -10.11317        -1.65584         1.22956
H        -10.37252        -0.81018         1.67492
O         -0.06088        -1.03218         2.68630
H         -0.59474        -1.72049         3.14440
O          4.09578        -5.44022         2.38954
H          4.53493        -6.32301         2.44606
H         11.87543        -1.28138         0.84609
H         12.22354         1.12241         0.72535
H         11.48299         3.36563        -0.09760
H          9.26190         5.25995        -1.63429
H          8.07350         7.31973        -1.59706
H          7.09496         9.39742        -1.65785
H          5.24676        10.84758        -2.22215
H          2.42830         9.76100        -3.09088
H          0.04447        10.38515        -2.28074
H         -2.45487         9.91996        -2.77371
H         -4.73486         9.18476        -3.48663
H         -6.91475         8.41087        -2.67545
H         -8.32666         7.03734        -1.12884
H         -9.07659         5.43857         1.57808
H        -10.96944         3.40651         0.05147
H        -12.12521         1.33902        -0.49847
H        -11.97954        -1.01550        -1.21160
H        -10.76588        -3.30216        -1.13094
H         -9.40805        -5.32976         0.13939
H         -8.35459        -7.51888        -1.32917
H         -7.15590        -9.79274        -1.42600
H         -5.29077       -11.24435        -1.46911
H         -2.70012       -11.15016         0.00990
H         -0.35426       -10.58260        -2.04648
H          2.78614       -10.96339        -0.05413
H          5.05386       -10.97155        -0.90248
H          7.13143        -9.67730        -1.15338
H          7.91083        -7.45678        -0.04629
H          9.51854        -5.29173        -1.35910
H         10.61037        -3.27507         0.15763
