         344
 CSIRO Nanostructure Databank - Neutral Graphene Oxide Data Set
C          1.22623         3.34591         0.14120
C         -0.02105         4.02040         0.07145
C          1.06766         6.16629        -0.48544
C         -0.11432         5.37445        -0.12536
C          1.09272         7.63976        -0.34423
C         -0.06263         8.36084        -0.13768
C          1.12414        10.51785        -0.10018
C         -0.06857         9.77322        -0.11730
C          1.11711        11.93451        -0.06272
C         -0.05565        12.73567        -0.26981
C          1.30644        14.79964        -0.67114
C         -0.00626        14.08328        -0.47942
C          1.28119        16.30823        -0.46999
C          0.14719        17.05675        -0.85764
C          1.27767        19.15984        -0.35203
C          0.14001        18.44169        -0.77754
C          1.29542        20.61364        -0.32454
C          0.18264        21.36770        -0.76992
C          1.36736        23.46528        -0.38682
C          0.21064        22.74741        -0.77557
C          1.42382        24.91003        -0.49752
C          0.31059        25.64744        -0.97705
C          1.55471        27.73294        -0.89564
C          0.37052        27.01670        -1.17176
C          1.63481        29.14252        -1.11655
C          3.66881         3.44046         0.38277
C          2.43661         4.03131        -0.00281
C          3.64465         6.23571        -0.30998
C          2.40574         5.43355        -0.48129
C          3.62948         7.59061        -0.30161
C          2.38296         8.38005        -0.66008
C          3.59260        10.47176         0.08221
C          2.40530         9.81113        -0.14121
C          3.64553        11.90004         0.57104
C          2.34703        12.65145         0.32127
C          3.71165        14.81144         0.17910
C          2.39799        14.12808         0.14191
C          3.61964        16.26686         0.54369
C          2.42827        16.99050        -0.05171
C          3.62689        19.09692         0.44540
C          2.44767        18.41933         0.00738
C          3.56204        20.53834         0.69936
C          2.43351        21.31490         0.14983
C          3.72855        23.44202         0.39023
C          2.49780        22.73183         0.07376
C          3.77870        24.88554         0.27801
C          2.62337        25.60187        -0.16309
C          3.86187        27.74986        -0.08226
C          2.68844        27.03293        -0.36724
C          3.94445        29.14957        -0.34110
C          2.79121        29.83009        -0.85694
C          6.12205         3.51332         0.62163
C          4.90596         4.10342         0.26849
C          6.17361         6.23808        -0.18848
C          4.92589         5.43961        -0.43834
C          6.15935         7.63416        -0.29441
C          4.88360         8.32679         0.10282
C          6.04690        10.51579        -0.22875
C          4.86644         9.81242        -0.10380
C          6.07040        11.96095        -0.11435
C          4.89581        12.65134         0.09551
C          6.17116        14.80974         0.12921
C          4.89480        14.10878         0.16158
C          6.17532        16.31654        -0.03146
C          4.89824        17.02038         0.35597
C          6.14296        19.13390         0.68515
C          4.87927        18.39720         0.53817
C          6.14634        20.54608         0.88966
C          4.86958        21.29153         1.00447
C          6.10186        23.46887         1.10476
C          4.87127        22.74485         0.77329
C          6.18207        24.91385         0.85743
C          4.99429        25.58589         0.54901
C          6.31715        27.73394         0.48898
C          4.97202        27.08529         0.68208
C          6.35406        29.14143         0.21893
C          5.15415        29.83577        -0.12521
C          8.58950         3.58200         0.80393
C          7.37871         4.18046         0.44306
C          8.61510         6.27337        -0.14721
C          7.38938         5.55698        -0.00228
C          8.58458         7.67146        -0.51657
C          7.36073         8.35921        -0.48401
C          8.53657        10.60208        -0.95758
C          7.21371         9.81447        -0.89996
C          8.61027        12.02507        -0.57665
C          7.41335        12.62264         0.14768
C          8.64007        14.83274         0.03025
C          7.36345        14.12964         0.07707
C          8.65251        16.26676         0.29729
C          7.35647        16.92182         0.70897
C          8.59699        19.12892         0.67749
C          7.36097        18.43503         0.63776
C          8.60262        20.54889         0.81214
C          7.36859        21.23431         0.95530
C          8.66959        23.41740         1.13373
C          7.39622        22.68246         1.23945
C          8.65901        24.85591         1.10681
C          7.45412        25.57870         0.95458
C          8.75154        27.70601         0.75354
C          7.49811        27.01903         0.73495
C          8.78333        29.12201         0.53302
C          7.58524        29.81587         0.25100
C         11.04704         3.69751         1.09891
C          9.82956         4.26953         0.64516
C         11.11309         6.20850        -0.34167
C          9.82520         5.58213         0.08519
C         11.01569         7.71238        -0.41898
C          9.85007         8.38389        -0.66816
C         11.13467        10.64219        -0.94421
C          9.86194         9.85781        -0.98361
C         11.09800        12.03995        -0.94174
C          9.81445        12.72328        -0.62809
C         11.03689        15.00102        -0.54569
C          9.80873        14.14750        -0.29304
C         11.11793        16.22001         0.36814
C          9.82345        16.98951         0.37066
C         11.05322        19.15187         0.48637
C          9.83816        18.42058         0.55598
C         11.06298        20.56438         0.65540
C          9.84369        21.26386         0.88174
C         11.15803        23.35435         1.41068
C          9.85392        22.68124         1.07946
C         11.12967        24.84226         1.18400
C          9.94367        25.55161         1.12812
C         11.17312        27.72075         1.13963
C          9.96847        27.00647         1.02504
C         11.21044        29.12907         0.86946
C         10.02214        29.80613         0.56907
C         13.48248         3.87801         1.58167
C         12.28256         4.40614         1.03915
C         13.53621         6.35322         0.25781
C         12.32142         5.68441         0.39754
C         13.56713         7.66863        -0.48327
C         12.27567         8.50621        -0.29227
C         13.66304        10.21550        -1.40001
C         12.27585         9.65562        -1.30291
C         13.59406        12.39292        -1.34171
C         12.31527        12.88173        -0.96527
C         13.53886        14.95548        -0.40568
C         12.33376        14.23802        -0.53670
C         13.54336        16.39255        -0.19410
C         12.32493        17.06785         0.05415
C         13.49289        19.21215        -0.02437
C         12.29682        18.46210         0.19367
C         13.48503        20.63459         0.08992
C         12.29779        21.30783         0.49968
C         13.55434        23.41166         0.63456
C         12.35544        22.68621         0.79016
C         13.72074        24.74293         1.36676
C         12.40597        25.52518         1.48298
C         13.74970        27.77625         1.61340
C         12.41093        27.03104         1.56182
C         13.68023        29.18265         1.05113
C         12.45988        29.82219         0.84772
C         15.96866         3.98242         1.86867
C         14.72218         4.53319         1.40589
C         16.04277         6.34984         0.30978
C         14.74399         5.77043         0.70241
C         16.07673         7.75646        -0.27032
C         14.77542         8.50373        -0.02978
C         16.04330        10.66342        -0.52024
C         14.77378         9.84482        -0.72698
C         16.04516        12.13405        -0.94946
C         14.80846        12.91011        -0.89090
C         16.02787        14.98298        -0.47806
C         14.81930        14.30023        -0.53023
C         16.08346        16.44864        -0.18196
C         14.74691        17.12581        -0.27156
C         15.91274        19.28936        -0.58926
C         14.72107        18.53663        -0.26982
C         15.86246        20.67845        -0.60490
C         14.67183        21.37649        -0.18340
C         15.86616        23.58533        -0.26869
C         14.67232        22.77708         0.06178
C         16.01424        24.93982         0.29696
C         14.88453        25.58960         0.86486
C         16.09897        27.71004         0.74910
C         14.90567        26.98664         1.00972
C         16.12718        29.15572         0.82531
C         14.89271        29.86156         0.86713
C         18.42406         4.09849         2.20894
C         17.19278         4.62951         1.67838
C         18.45717         6.59697         0.82974
C         17.27063         5.85564         0.92609
C         18.49264         7.92903         0.23187
C         17.32958         8.51471        -0.25204
C         18.56208        10.65793        -0.72485
C         17.30543         9.85844        -0.94775
C         18.53625        12.07523        -1.23281
C         17.24088        12.79582        -0.89826
C         18.46858        14.97983        -1.11537
C         17.32968        14.23760        -0.46291
C         18.33051        16.40853        -1.43279
C         17.16506        17.18221        -0.94121
C         18.31870        19.33194        -1.30793
C         17.12264        18.56298        -1.01499
C         18.31966        20.70567        -1.13498
C         17.00483        21.43443        -1.26104
C         18.37354        23.59281        -0.74540
C         17.06643        22.91554        -0.88698
C         18.40507        24.94500        -0.41429
C         17.23139        25.62317         0.07916
C         18.53849        27.70659         0.43312
C         17.30339        27.01990         0.42120
C         18.57176        29.12305         0.57764
C         17.34695        29.83154         0.71010
C         19.60203         4.77370         2.05850
C         20.84443         6.79265         1.33726
C         19.65889         6.05526         1.40457
C         20.86870         8.08861         0.78818
C         19.72541         8.68976         0.26518
C         20.87721        10.91435        -0.05637
C         19.71234        10.08880        -0.19125
C         20.88109        12.26987        -0.39274
C         19.74720        12.90447        -0.89789
C         20.89456        15.07389        -1.49925
C         19.68890        14.32111        -1.21216
C         20.87300        16.41374        -1.70991
C         19.61021        17.16663        -1.78906
C         20.77509        19.30231        -0.99160
C         19.62805        18.69230        -1.75313
C         20.75236        20.62531        -0.73290
C         19.55933        21.42690        -0.98140
C         20.84835        23.54177        -0.78890
C         19.58909        22.82290        -0.86324
C         20.90507        24.88381        -0.67800
C         19.67700        25.75214        -0.62909
C         21.04409        27.72762         0.23867
C         19.80840        26.88969         0.41002
C         21.01894        29.09507         0.33510
C         19.81393        29.80716         0.52517
O         16.09264         6.60945        -1.15378
O          2.00725        13.59336         1.44118
O          9.17763        10.24967        -2.23608
O         13.68671        11.32887        -2.24657
O         18.70486        16.70171        -2.83882
O         12.25272        26.22401         2.78129
O          3.96437        20.87733         2.07874
O          1.71780         5.68627        -1.74920
O         16.12368        23.66530        -1.73761
O          6.63318        23.06723         2.43183
O         19.54799        26.40701        -1.92199
H         19.40163        25.71278        -2.59831
O          6.37118        16.59522        -1.45082
H          5.65530        16.14965        -1.95033
O         19.81514        19.10232        -3.14411
H         19.16760        18.58401        -3.67301
O         18.54827        11.98747        -2.70775
H         18.00396        11.20129        -2.95802
O         14.09371        27.96071         3.01261
H         13.74314        27.16970         3.48758
O         14.08440        24.34089         2.71862
H         13.28150        23.91562         3.10688
O         16.70420        21.37690        -2.69024
H         16.13602        22.15996        -2.88338
O          4.88875         8.22427         1.58315
H          4.93237         7.27235         1.81716
O          2.41132         8.47286        -2.12413
H          2.28857         7.55312        -2.46057
O         10.88871        15.51660        -1.90281
H         10.84251        14.75224        -2.51463
O         16.20101        10.77704         0.92118
H         15.45160        11.29614         1.27933
O         11.35478        23.19909         2.87349
H         10.63485        23.69651         3.31944
O          7.16466        16.58842         2.11730
H          7.92598        16.94449         2.62100
O          3.83171        11.83300         2.01428
H          3.36291        12.61860         2.38701
O          6.73263         9.73623        -2.28064
H          7.53143         9.63907        -2.85181
O         19.91758        26.21746         1.70570
H         19.96696        26.90962         2.39810
O         12.23101         9.12226         1.03313
H         11.83800         8.47674         1.65791
O          4.63992        27.31872         2.11138
H          4.61562        28.29098         2.24263
O          3.37075        16.25866         2.00182
H          3.40530        17.19031         2.30932
O          1.70978        14.59830        -2.06824
H          1.01103        14.97899        -2.64082
O          7.67205        12.27909         1.56122
H          6.88361        12.55330         2.07871
O         17.71828        14.14655         0.97223
H         17.49215        15.02839         1.36829
O         11.30631        15.71506         1.72601
H         11.36928        16.48595         2.32763
O         17.19516         9.59348        -2.38234
H         16.55313         8.86056        -2.51230
O         16.48766        16.57475         1.26794
H         15.68760        16.37537         1.80166
O         13.71044         7.40241        -1.88804
H         12.98224         6.78332        -2.14335
O         14.75275         8.64584         1.40954
H         13.93786         9.15174         1.64202
O         11.90634         9.13215        -2.59725
H         12.06847         9.84184        -3.25445
O          4.99643         5.11268        -1.87058
H          4.16068         4.65619        -2.10858
O         11.34698         5.79306        -1.75885
H         10.56651         6.08785        -2.27721
H          1.24301         2.28836         0.44086
H         -0.93439         3.44685         0.28590
H         -1.08747         5.87234        -0.01625
H         -1.02558         7.84223        -0.02453
H         -1.03667        10.28592        -0.04345
H         -1.03868        12.24133        -0.28439
H         -0.94690        14.62964        -0.64137
H         -0.75476        16.54211        -1.21770
H         -0.77651        18.97292        -1.06512
H         -0.72694        20.86180        -1.11800
H         -0.68373        23.28063        -1.12143
H         -0.62884        25.13291        -1.21580
H         -0.50835        27.55526        -1.55458
H          0.75143        29.66659        -1.50972
H          3.64887         2.41610         0.78611
H          2.85344        30.91199        -1.04301
H          6.12267         2.50114         1.05484
H          5.20683        30.91504        -0.32945
H          8.59238         2.56436         1.22195
H          7.62009        30.89673         0.05150
H         11.02668         2.69781         1.55760
H         10.04840        30.88703         0.36851
H         13.45344         2.90905         2.10228
H         12.45832        30.88477         0.55990
H         15.94937         3.02742         2.41521
H         14.88554        30.94096         0.65144
H         18.39746         3.13967         2.74724
H         17.36445        30.93046         0.75006
H         20.53289         4.35887         2.47314
H         21.76854         6.37145         1.75886
H         21.82331         8.63195         0.80619
H         21.80100        10.48565         0.35420
H         21.79428        12.85302        -0.20183
H         21.85652        14.54158        -1.49780
H         21.81890        16.95781        -1.84514
H         21.66309        18.70259        -0.74496
H         21.61730        21.09727        -0.24526
H         21.78482        22.97353        -0.87678
H         21.88566        25.38094        -0.69648
H         22.01098        27.21507         0.13585
H         21.96053        29.65927         0.26193
H         19.83090        30.90229         0.61114
