         598
 CSIRO Nanostructure Databank - Neutral Graphene Oxide Data Set
C         23.02823        69.88066        -1.76837
C         23.23842        71.27993        -2.04412
C         22.08119        72.06447        -2.27563
C         23.33490        74.13324        -2.25948
C         22.13714        73.45394        -2.42873
C         25.48774        65.59058        -0.97952
C         25.47085        66.99235        -1.12451
C         24.18562        67.63001        -1.30172
C         25.87970        69.92266        -1.71626
C         24.03116        68.90402        -1.86460
C         25.72752        71.32559        -1.56375
C         24.50014        71.97684        -1.91789
C         25.69954        74.12246        -1.60011
C         24.52293        73.41497        -1.94019
C         27.92212        61.29965        -0.37730
C         27.86658        62.70938        -0.26620
C         26.68103        63.44332        -0.59242
C         27.80986        65.60208        -0.22801
C         26.65077        64.86302        -0.60487
C         27.84106        67.00640        -0.38153
C         26.71245        67.71918        -0.90630
C         27.95397        69.87139        -0.50269
C         26.82820        69.14773        -1.00770
C         27.98443        71.32700        -0.55158
C         26.84861        72.03863        -1.05911
C         28.01740        74.16940        -0.69810
C         26.85892        73.47308        -1.10658
C         30.33092        56.97553         0.10439
C         30.18375        58.35837         0.66106
C         29.09310        59.15482        -0.00107
C         30.21924        61.27881         0.51380
C         29.07186        60.56021         0.03551
C         30.21729        62.69901         0.51861
C         29.02572        63.40812         0.17890
C         30.23730        65.60012         0.30092
C         28.92905        64.88055         0.47654
C         30.25109        66.96476         0.19636
C         29.05389        67.73518        -0.06838
C         30.36679        69.92790         0.06253
C         29.09944        69.13727        -0.12835
C         30.12011        71.27894         0.75274
C         29.07488        72.05042        -0.03561
C         30.31338        74.19448         0.19903
C         29.14417        73.48563        -0.15429
C         32.49798        52.57786        -0.43615
C         32.24272        53.80385         0.19756
C         31.41785        54.85907        -0.19561
C         32.66091        56.91012         0.91681
C         31.45153        56.21647         0.32415
C         32.70137        58.41528         0.83003
C         31.50688        59.08611         0.70415
C         32.70065        61.26885         1.26968
C         31.41277        60.53185         0.96308
C         32.66942        62.76752         1.18995
C         31.42886        63.41727         0.78636
C         32.81562        65.51218         0.19450
C         31.48476        64.81002         0.34701
C         32.78877        67.00099         0.03762
C         31.52643        67.68125         0.43004
C         32.72974        69.97119         0.26678
C         31.52312        69.14327         0.61172
C         32.73290        71.29476         1.02494
C         31.42625        72.05697         1.00359
C         32.83223        74.19289         0.69901
C         31.49873        73.54662         0.77062
C         35.19903        48.37389        -0.05312
C         35.09577        49.79734         0.17644
C         33.84390        50.54173        -0.09464
C         35.09121        52.73455        -0.45637
C         33.75706        51.89751        -0.19892
C         35.12701        54.13053         0.19130
C         34.13390        54.75951         0.85554
C         35.22362        57.02262         0.78591
C         34.01498        56.22207         1.05121
C         35.22611        58.40360         0.84650
C         33.96749        59.14288         0.98392
C         35.21435        61.31108         1.07834
C         33.97912        60.54402         1.09581
C         35.26672        62.70475         1.02767
C         34.02435        63.50823         1.08509
C         35.29063        65.60072         0.54431
C         34.06740        64.88437         0.60346
C         35.31901        67.02344         0.27935
C         34.06393        67.76954        -0.00447
C         35.21740        69.91727         0.31133
C         34.04554        69.24008         0.24282
C         35.29447        71.32065         0.78459
C         34.02182        72.05519         1.09923
C         35.30277        74.21960         0.84909
C         34.01945        73.53474         0.91683
C         37.72026        44.16743         0.45542
C         37.68433        45.58150         0.36312
C         36.47319        46.27671         0.16122
C         37.67033        48.43956         0.11202
C         36.42114        47.69767         0.10932
C         37.68654        49.84137         0.01115
C         36.44589        50.59575         0.20291
C         37.58744        52.69882        -0.36497
C         36.40788        52.02014        -0.14125
C         37.56010        54.17709        -0.60336
C         36.31531        54.92087        -0.20763
C         37.73535        57.02261         0.28069
C         36.45099        56.27296         0.43362
C         37.70751        58.49004         0.50559
C         36.49679        59.11713         0.77721
C         37.78671        61.32271         1.03606
C         36.47793        60.54596         1.13902
C         37.72720        62.78835         0.92346
C         36.51670        63.45782         0.93075
C         37.74772        65.64591         0.70659
C         36.51259        64.91343         0.77433
C         37.75890        67.06863         0.50514
C         36.50864        67.73432         0.32895
C         37.77856        69.95084        -0.03082
C         36.48997        69.19244         0.05319
C         37.75324        71.46386         0.01469
C         36.56256        72.09300         0.66124
C         37.80001        74.24361         0.80539
C         36.52463        73.57740         0.74976
C         40.24397        39.86725         0.55586
C         40.19711        41.29750         0.60261
C         38.97863        42.01399         0.49664
C         40.17557        44.14094         0.64403
C         38.94240        43.43005         0.54940
C         40.16018        45.62856         0.89573
C         38.92089        46.33797         0.38668
C         40.19316        48.41663        -0.18852
C         38.90715        47.70425         0.17089
C         40.16289        49.92633        -0.08741
C         38.91219        50.59467        -0.13259
C         40.09055        52.74272        -0.19350
C         38.86999        52.01961        -0.22805
C         40.06300        54.22083        -0.12253
C         38.89441        54.89654        -0.80575
C         40.15688        57.16087        -0.47885
C         38.85718        56.42087        -0.52156
C         40.18938        58.56795        -0.01506
C         38.95284        59.23073         0.37338
C         40.14763        61.38172         0.11847
C         38.96462        60.60859         0.52962
C         40.17845        62.86865         0.33749
C         39.03643        63.50879         1.09140
C         40.21002        65.67171         0.70886
C         38.98439        64.97633         0.79396
C         40.22094        67.09810         0.64472
C         38.98703        67.79728         0.49333
C         40.21875        69.93427         0.42448
C         39.02279        69.22491         0.32399
C         40.25010        71.36249         0.13212
C         39.04021        72.23055         0.01392
C         40.23213        74.39884         0.90271
C         39.03651        73.64443         0.56385
C         42.72327        35.54950         0.62637
C         42.66396        36.97327         0.55227
C         41.48552        37.71242         0.45393
C         42.68900        39.88132         0.54501
C         41.47140        39.15545         0.48060
C         42.67880        41.28212         1.09397
C         41.41588        42.03139         0.72950
C         42.65831        44.18540         0.52556
C         41.38803        43.43650         0.70109
C         42.65236        45.66496         0.63913
C         41.46499        46.33166         0.58783
C         42.68001        48.58086         0.36101
C         41.40542        47.81173         0.49087
C         42.65859        49.97402        -0.13345
C         41.36724        50.65571        -0.13088
C         42.58208        52.82546        -0.27166
C         41.33471        52.07901        -0.18029
C         42.61354        54.19508        -0.21760
C         41.36903        54.97017        -0.11215
C         42.64223        57.07136        -0.49619
C         41.43075        56.40427        -0.46646
C         42.62373        58.55040        -0.55860
C         41.38439        59.25711        -0.13871
C         42.62951        61.40688         0.05867
C         41.43547        60.68643         0.01056
C         42.65854        62.82626         0.25232
C         41.48224        63.54512         0.43788
C         42.66186        65.68654         0.83038
C         41.46138        64.96824         0.67579
C         42.66323        67.08433         0.97239
C         41.45790        67.79904         0.76272
C         42.70253        69.91367         0.68030
C         41.47213        69.23886         0.65019
C         42.68544        71.38911         0.60132
C         41.46676        71.95444         0.03005
C         42.82637        74.56284         0.83740
C         41.51958        74.12298         0.45131
C         45.26023        32.77832         0.60130
C         44.02100        33.43838         0.56250
C         45.19398        35.55450         1.02415
C         43.93468        34.83926         0.71024
C         45.20265        37.06251         0.89681
C         43.95286        37.68126         0.39062
C         45.23797        39.89671         0.60738
C         43.96301        39.22116         0.33540
C         45.18003        41.30343         0.77188
C         43.97322        41.99955         0.80121
C         45.21573        44.23686         0.63277
C         43.96416        43.45434         0.56865
C         45.21850        45.58728         0.36786
C         43.96185        46.35796         0.56967
C         45.10665        48.41582        -0.44461
C         43.97925        47.84026         0.35870
C         45.08643        49.89345        -0.72694
C         43.82685        50.62750        -0.42373
C         45.14490        52.76705        -0.75815
C         43.81458        52.07986        -0.64502
C         45.20934        54.19869        -0.33761
C         43.89466        54.94380        -0.16586
C         45.15120        57.07951        -0.36642
C         43.90634        56.39540        -0.36383
C         45.19357        58.50423        -0.29238
C         43.93233        59.26807        -0.40232
C         45.20180        61.34174         0.40534
C         43.89912        60.64373         0.17268
C         45.22493        62.81454         0.45555
C         43.96331        63.59101         0.15060
C         45.22811        65.62309         1.10667
C         43.91817        64.89470         0.93038
C         45.19524        67.07312         1.22456
C         43.89822        67.81466         1.46916
C         45.12976        69.97393         0.91358
C         43.94586        69.26040         0.96776
C         45.17607        71.44419         0.64278
C         43.90948        72.24019         0.78909
C         45.26200        74.34509         0.88656
C         43.98139        73.75285         0.70947
C         46.46890        33.45796         0.74602
C         47.67753        35.61562         0.93570
C         46.49781        34.86990         0.91066
C         47.69825        37.04956         0.86293
C         46.48194        37.76984         0.72461
C         47.74196        39.87887         0.51702
C         46.48534        39.17902         0.58954
C         47.68449        41.30783         0.45357
C         46.46888        42.02116         0.87899
C         47.73321        44.24221         0.46413
C         46.48848        43.53806         0.80380
C         47.69507        45.64201         0.15230
C         46.45316        46.29160         0.11124
C         47.67267        48.34021        -0.87753
C         46.39078        47.62861        -0.50720
C         47.62945        49.83962        -1.09152
C         46.38218        50.61420        -0.85962
C         47.66390        52.74746        -0.75659
C         46.42213        51.99444        -0.77925
C         47.66386        54.19881        -0.73001
C         46.43697        54.94764        -0.60370
C         47.63024        57.09465        -0.52695
C         46.41045        56.35827        -0.47234
C         47.65168        58.48312        -0.30534
C         46.41213        59.19791        -0.15524
C         47.66859        61.27962         0.25894
C         46.45978        60.61246         0.11671
C         47.67600        62.68162         0.75049
C         46.42335        63.47593         0.65897
C         47.72082        65.58725         0.92658
C         46.49093        64.90097         0.84095
C         47.78386        67.01425         1.47490
C         46.43964        67.78388         1.42951
C         47.68255        70.04549         1.08842
C         46.40519        69.31387         1.26503
C         47.70228        71.40356         1.06317
C         46.48081        72.17498         0.77568
C         47.73575        74.29117         1.06702
C         46.48402        73.64624         0.95611
C         48.91938        37.77590         0.89881
C         50.26567        39.83978         1.00187
C         48.98592        39.17018         0.72748
C         50.63573        41.05761         0.47104
C         48.77726        42.08707         0.09448
C         50.22062        44.12909         0.42777
C         48.89669        43.48080         0.32211
C         50.20301        45.61578         0.15627
C         48.93719        46.33998        -0.17166
C         50.22863        48.39633        -0.97186
C         48.95425        47.66659        -0.54419
C         50.19782        49.88399        -0.66537
C         48.95196        50.60873        -0.98216
C         50.12793        52.76576        -0.63636
C         48.89261        52.06313        -0.74195
C         50.12138        54.19712        -0.69198
C         48.88426        54.89715        -0.75288
C         50.14511        57.08495        -0.57636
C         48.87828        56.38915        -0.99418
C         50.13341        58.48109        -0.35138
C         48.89569        59.21040        -0.23166
C         50.16511        61.32577         0.10074
C         48.91757        60.59264         0.06120
C         50.21227        62.73109         0.31786
C         48.99648        63.43482         0.79080
C         50.22042        65.64405         0.87669
C         48.95209        64.91118         0.82463
C         50.23545        67.10676         0.74107
C         48.92460        67.78799         0.80712
C         50.20711        69.99563         0.81342
C         48.91818        69.28233         0.80476
C         50.21837        71.38463         1.04384
C         48.96372        72.11885         1.45561
C         50.20719        74.24896         1.17944
C         48.96771        73.59786         1.14991
C         51.65749        42.02684         0.79752
C         52.68173        44.24946         0.75606
C         51.53477        43.40504         0.57001
C         52.71191        45.62910         0.50724
C         51.51306        46.26540        -0.11251
C         52.58244        48.51064         0.21825
C         51.51671        47.70245        -0.50035
C         52.63516        49.94371        -0.22315
C         51.36991        50.60553        -0.45731
C         52.58845        52.75995        -0.53568
C         51.35865        52.05399        -0.53625
C         52.58324        54.18804        -0.63391
C         51.35864        54.90129        -0.69214
C         52.59228        57.01881        -0.53796
C         51.36344        56.34864        -0.63029
C         52.59792        58.44279        -0.21734
C         51.35371        59.19889        -0.19993
C         52.62063        61.34038        -0.29767
C         51.38849        60.60967        -0.10579
C         52.59330        62.77091        -0.27253
C         51.40904        63.45111         0.10157
C         52.60586        65.70022        -0.17088
C         51.51350        64.89790         0.40914
C         52.62545        67.11938         0.06556
C         51.41079        67.80385         0.51868
C         52.63575        69.97777         0.74916
C         51.41408        69.27063         0.63845
C         52.64549        71.35882         0.99759
C         51.43782        72.08376         1.10711
C         52.67138        74.21978         1.29796
C         51.44472        73.54171         1.24121
C         53.89737        46.40571         0.56217
C         55.09323        48.54279         0.22608
C         53.91157        47.79290         0.29197
C         55.10220        49.94737        -0.01542
C         53.83405        50.63888        -0.21863
C         55.05911        52.76491        -0.49720
C         53.83654        52.06453        -0.42559
C         55.04429        54.16708        -0.71729
C         53.83331        54.87888        -0.70988
C         55.02135        57.02902        -0.92544
C         53.83732        56.32497        -0.71895
C         54.98660        58.48102        -1.10306
C         53.88844        59.23745        -0.47380
C         55.03925        61.39201        -0.93214
C         53.82598        60.68511        -0.61848
C         55.00602        62.84410        -0.87369
C         53.78125        63.51063        -0.56879
C         54.84098        65.54589        -1.29653
C         53.71009        64.93861        -0.69160
C         54.88449        67.59284        -0.90565
C         53.78892        67.93206        -0.09176
C         55.12711        70.00217         0.31955
C         53.92978        69.18694         0.74542
C         55.05721        71.46292         0.44882
C         53.95711        72.04038         1.30558
C         55.12800        74.25316         1.16430
C         53.92370        73.55406         1.22858
C         56.30084        50.67689        -0.08253
C         57.54039        52.80148        -0.38856
C         56.33044        52.07530        -0.34140
C         57.59243        54.19310        -0.68610
C         56.31168        54.84812        -1.03362
C         57.54661        57.12582        -1.05801
C         56.29047        56.35099        -1.21390
C         57.52124        58.49489        -1.20129
C         56.25960        59.24489        -1.40044
C         57.46498        61.44091        -1.53778
C         56.23286        60.70609        -1.19573
C         57.46005        62.92922        -1.40265
C         56.19023        63.59524        -1.06291
C         57.37431        65.78478        -1.47981
C         56.13589        64.99723        -1.24254
C         57.40394        67.37784        -1.23077
C         56.20348        68.06527        -0.72691
C         57.52660        70.09710        -0.32069
C         56.28887        69.38369        -0.15667
C         57.53877        71.55632        -0.16198
C         56.28929        72.27717         0.22347
C         57.61061        74.21131         1.07342
C         56.37969        73.61680         0.85798
C         58.75919        54.95876        -0.67467
C         59.99073        57.10076        -0.77608
C         58.79229        56.39601        -0.83481
C         60.03857        58.56386        -0.74991
C         58.71826        59.31204        -0.94121
C         59.97596        61.47644        -1.12238
C         58.78756        60.68165        -1.60747
C         59.95207        62.94842        -0.78713
C         58.70566        63.69128        -1.21138
C         59.89304        65.82195        -1.14729
C         58.66454        65.07438        -1.25495
C         59.93066        67.25322        -1.03398
C         58.71246        68.01000        -0.94219
C         59.99221        70.07889        -0.36725
C         58.72693        69.40199        -0.59717
C         60.03709        71.33967         0.18110
C         58.85880        72.21371         0.17187
C         60.07384        74.10601         1.17985
C         58.87022        73.54202         0.84246
C         61.24544        59.35072        -0.98520
C         62.40417        61.53063        -0.86398
C         61.19683        60.76967        -0.98579
C         62.45840        62.92923        -1.04063
C         61.22271        63.67427        -1.18661
C         62.27639        65.88778        -1.54160
C         61.12472        65.09095        -1.28617
C         62.41741        67.22779        -1.09945
C         61.19570        67.91632        -0.88315
C         62.53720        69.95997        -0.25125
C         61.25832        69.42166        -0.85601
C         62.54774        71.17564         0.38196
C         61.29509        71.88308         0.71988
C         62.63915        74.00949         1.18261
C         61.33232        73.32665         1.18025
C         63.76720        63.50991        -0.87766
C         65.09568        65.67547        -0.85163
C         64.10447        64.79690        -1.29742
C         64.97648        67.10664        -0.91672
C         63.73007        67.84656        -0.93083
C         65.00102        69.84700        -0.24689
C         63.77147        69.21294        -0.49594
C         65.06693        71.17364         0.39383
C         63.79654        71.84121         0.80761
C         65.10030        73.95040         1.16617
C         63.81379        73.31553         1.03496
C         66.19663        67.80546        -0.72306
C         67.48758        69.85600        -0.18696
C         66.24390        69.17442        -0.44314
C         67.54702        71.20195         0.15015
C         66.27547        72.02031         0.07896
C         67.56100        73.90349         1.12741
C         66.29754        73.31452         0.86282
C         68.75510        71.87026         0.46809
C         68.74905        73.19842         0.91047
O         44.33953        52.53112        -1.95995
O         35.05063        52.87146        -1.82024
O         61.23588        72.20343         2.15846
O         35.72736        50.25057         1.42614
O         37.47101        56.25113         1.50417
O         57.33873        66.74150        -2.55062
O         30.90960        70.23261        -1.28434
O         40.54375        54.77446         1.12573
O         43.29269        59.16254        -1.71984
O         46.59219        42.81037         2.10456
O         49.82293        41.49338        -0.60772
O         51.89220        46.68990        -1.47961
O         33.29672        63.39170         2.36855
O         48.34984        50.24620        -2.28230
O         44.28935        47.32055         1.67381
O         55.34313        58.84201        -2.48069
O         31.26136        72.93473         2.14342
O         36.64126        54.73849        -1.61749
O         53.55451        58.76880         0.86126
O         41.57779        73.18135        -0.60155
O         44.07060        38.35348        -0.86717
O         58.29272        72.27533        -1.19094
O         25.13336        69.30241        -2.68833
O         39.85130        62.35157        -0.98027
O         44.68697        54.48003         1.00352
O         48.09846        66.85421         2.82415
O         39.28071        57.14427        -1.70209
O         38.22954        72.08785        -1.20683
O         55.24803        72.18899        -0.81380
O         43.28494        43.76825        -0.75080
O         44.48094        64.91751         2.24195
O         44.74993        48.88582        -1.76757
O         32.39696        70.35955        -1.13301
O         46.30753        68.71221         2.59208
O         48.63008        68.48910        -0.44337
O         45.05815        36.42623         2.20547
O         36.24916        71.41537         1.92328
O         46.91601        47.59431        -1.87816
O         37.28720        60.82662         2.32962
O         33.41420        71.42890         2.29003
O         64.63515        71.12314         1.78855
O         56.28453        55.45269        -2.37735
O         44.44525        60.70803         1.53161
O         50.16341        45.12605         1.53169
O         57.32212        62.27839        -2.75363
O         43.09580        71.90396         1.96006
O         32.20515        64.85033        -0.98199
O         31.84098        60.80764         2.36147
O         33.04046        54.03153         1.33702
O         45.91979        71.80086        -0.56241
O         54.64271        66.73708        -1.99056
O         33.19083        56.53661         2.22186
O         51.21687        65.14924         1.81615
O         41.93901        48.50999         1.64516
O         59.24390        59.19155         0.38626
O         37.11181        69.47665        -1.25428
O         31.51853        68.32918         1.78638
O         33.35035        67.41149        -1.24759
O         63.26676        65.33581        -2.31656
O         48.40535        62.82996         2.00283
O         52.06695        48.56046         1.59775
H         52.73352        49.02039         2.15085
O         39.39363        63.34963         2.50279
H         38.63159        63.63167         3.05158
O         54.30168        71.66888         2.68500
H         53.63746        72.07612         3.28085
O         59.90649        62.97664         0.71208
H         60.69704        62.49203         1.03529
O         48.94883        72.05297         2.93041
H         49.69799        72.59501         3.25750
O         42.61333        41.17500         2.57911
H         43.41251        40.69175         2.87994
O         48.85570        56.53260        -2.47346
H         48.07819        56.03395        -2.80532
O         43.71214        67.91238         2.91587
H         44.57963        68.19869         3.29407
O         40.40600        48.11282        -1.60842
H         39.67221        48.51377        -2.12053
O         44.06900        64.01346        -1.25293
H         43.80794        63.26105        -1.82555
O         59.03777        60.38218        -3.01062
H         58.63479        61.11890        -3.53028
O         54.17304        68.77913         2.13282
H         54.26674        69.61294         2.65350
O         29.53683        70.99677         2.04129
H         29.80142        71.73577         2.63867
O         40.04469        45.73849         2.36257
H         40.22823        46.67072         2.61107
O         50.21424        48.33193        -2.41949
H         50.67986        47.50206        -2.67706
O         29.76519        58.20912         2.06934
H         30.06447        59.00581         2.55990
O         39.20707        54.71482        -2.20307
H         38.41545        54.98729        -2.71875
O         66.11351        72.40447        -1.32422
H         66.91126        72.90900        -1.58888
O         61.33770        69.80345        -2.27973
H         60.47734        69.58403        -2.69788
O         28.63870        64.95491         1.92951
H         28.58727        65.90428         2.17290
H         23.36930        75.23028        -2.31794
H         25.68932        75.22162        -1.65913
H         28.04631        75.26529        -0.78126
H         30.35503        75.27469        -0.00415
H         32.85325        75.27152         0.47790
H         35.28317        75.32040         0.86687
H         37.79265        75.30567         1.09798
H         40.09367        75.23483         1.60625
H         42.95730        75.58190         1.23549
H         45.29992        75.44295         0.96789
H         47.75770        75.39252         1.05530
H         50.23894        75.34758         1.11267
H         52.66614        75.32076         1.31000
H         55.11935        75.34463         1.31176
H         57.64584        75.20800         1.53920
H         60.10144        75.12592         1.59357
H         62.65767        75.10193         1.31550
H         65.12891        74.97178         1.57799
H         67.60031        74.90852         1.57290
H         22.02178        69.57957        -1.44133
H         21.10961        71.55570        -2.35499
H         21.21602        74.01172        -2.64749
H         24.55900        65.03211        -1.17142
H         23.29924        67.09396        -0.93158
H         27.03823        60.75036        -0.73377
H         25.78197        62.88738        -0.89707
H         29.45668        56.51462        -0.38145
H         28.18858        58.61888        -0.32671
H         31.87227        52.26041        -1.28710
H         30.64932        54.65604        -0.95818
H         34.30196        47.81356        -0.35604
H         32.91160        49.95711        -0.01038
H         36.77267        43.61079         0.39375
H         35.53136        45.70987         0.11025
H         39.29816        39.30606         0.52087
H         38.03605        41.45701         0.38563
H         41.78404        34.98308         0.53459
H         40.51949        37.18650         0.48371
H         45.27857        31.68701         0.47095
H         43.10332        32.85778         0.39052
H         47.41731        32.90361         0.70182
H         48.64091        35.08293         0.92792
H         49.85182        37.22014         1.08021
H         50.92844        39.34580         1.72869
H         52.61618        41.66390         1.20200
H         53.62039        43.76189         1.06405
H         54.84897        45.90323         0.79604
H         56.05840        48.02548         0.34029
H         57.25409        50.14558         0.06074
H         58.48302        52.26925        -0.18786
H         59.71435        54.45648        -0.45595
H         60.94305        56.54927        -0.76389
H         62.21952        58.84250        -1.04245
H         63.34713        60.98678        -0.70555
H         64.51191        62.92085        -0.32232
H         65.97231        65.26848        -0.32611
H         67.13493        67.23172        -0.74506
H         68.41826        69.26876        -0.22959
H         69.70537        71.31903         0.41325
H         69.70573        73.68123         1.15524
