         429
 CSIRO Nanostructure Databank - Neutral Graphene Oxide Data Set
C          1.31751         1.98564         0.23932
C          1.25152         3.33538         0.49525
C          2.54404         1.27786         0.19019
C          2.42416         4.07428         0.95661
C          1.24445         6.29635         1.08506
C          1.20554         7.63639         1.35531
C          2.46346         5.55260         1.03297
C          2.41788         8.41018         1.61601
C          1.14867        10.65260         1.04772
C          1.15481        11.98555         0.77752
C          2.39128         9.94407         1.38520
C          2.37407        12.75117         0.72667
C          1.16356        14.93446         0.75394
C          1.17268        16.30846         0.80323
C          2.37427        14.18122         0.61339
C          2.38559        17.04056         0.67097
C          2.40813        18.46200         0.76804
C          3.76861         1.94279         0.31692
C          3.78643         3.32816         0.81664
C          5.00831         1.32674         0.02488
C          4.98898         4.14629         0.60115
C          3.70259         6.21824         1.12752
C          3.75341         7.64713         1.66652
C          4.92071         5.54812         0.85408
C          4.94165         8.46240         1.18012
C          3.64681        10.63968         1.07054
C          3.61349        12.04600         0.78583
C          4.88223         9.92064         1.10708
C          4.82233        12.77140         0.53773
C          3.59904        14.88844         0.43352
C          3.60254        16.33316         0.42705
C          4.83307        14.16715         0.34411
C          4.79682        17.06040         0.23506
C          3.58898        19.15649         0.66297
C          4.82136        18.47502         0.39525
C          6.20739         2.06010         0.03695
C          6.16654         3.48604         0.18330
C          7.47012         1.37945        -0.09378
C          7.42197         4.22617        -0.04068
C          6.11429         6.37515         0.54693
C          6.12912         7.81255         0.90812
C          7.37030         5.72602         0.06221
C          7.41275         8.49429         0.92619
C          6.07712        10.61578         0.90374
C          6.06862        12.00500         0.45358
C          7.35992         9.95512         1.17780
C          7.37571        12.77552         0.30548
C          6.08662        14.88839         0.13844
C          6.02292        16.35384        -0.27061
C          7.29710        14.24115         0.18747
C          7.28874        17.12644         0.00214
C          6.03771        19.19602         0.32554
C          7.29140        18.52888         0.17343
C          8.70136         1.97988         0.09125
C          8.73858         3.48677         0.10964
C          9.91159         1.20696        -0.13786
C          9.90651         4.32374         0.52265
C          8.68544         6.50844        -0.03230
C          8.60692         7.83730         0.71242
C          9.91261         5.71239         0.36604
C          9.89702         8.50777         0.95084
C          8.64256        10.76617         1.14334
C          8.64867        12.16168         0.68760
C          9.93105        10.01544         1.12394
C          9.86218        12.85674         0.57329
C          8.58423        14.92399        -0.09406
C          8.55795        16.44636        -0.19196
C          9.86937        14.27926         0.25394
C          9.81019        17.17605        -0.01447
C          8.52563        19.25283         0.14096
C          9.78278        18.60764         0.01861
C         11.12108         1.57605         0.42348
C         11.10067         3.71631         0.98702
C         12.46137         1.30162         0.03402
C         12.36639         4.29878         0.89571
C         11.14563         6.41104         0.53430
C         11.16192         7.83837         0.61103
C         12.36777         5.69900         0.70961
C         12.37354         8.57334         0.59519
C         11.15807        10.73286         0.74231
C         11.09652        12.13582         0.62093
C         12.36997        10.01897         0.59109
C         12.36249        12.86818         0.58822
C         11.04047        15.02559         0.22083
C         11.02634        16.46786         0.00821
C         12.33545        14.36953         0.53664
C         12.22829        17.19795        -0.18256
C         11.01589        19.31133        -0.10059
C         12.23466        18.62299        -0.28044
C         13.59695         2.06378         0.36232
C         13.63801         3.43990         1.08255
C         14.82840         1.48973        -0.05624
C         14.87150         4.22142         0.60099
C         13.59838         6.45960         0.90917
C         13.62077         7.88377         0.60187
C         14.93159         5.63308         0.87865
C         14.84626         8.55704         0.27293
C         13.58365        10.73764         0.27532
C         13.57971        12.12729         0.24596
C         14.81136         9.99393        -0.00944
C         14.65090        12.83970        -0.54984
C         13.63896        15.13353         0.30083
C         13.44569        16.43637        -0.45284
C         14.76222        14.32843        -0.31035
C         14.73761        17.18593        -0.73575
C         13.48850        19.31390        -0.47416
C         14.71236        18.65975        -0.63737
C         16.09084         2.08794         0.03080
C         16.19604         3.47687         0.59824
C         17.26554         1.42482        -0.36811
C         17.36788         4.22971         0.01741
C         16.16791         6.43836         0.57857
C         16.05135         7.86231         0.18231
C         17.40555         5.68885         0.17730
C         17.15793         8.48265        -0.63663
C         15.97233        10.67233        -0.36190
C         16.01876        12.18109        -0.29824
C         17.21995         9.98672        -0.55330
C         17.08937        12.81512        -1.17154
C         15.92808        15.02261        -0.60999
C         15.97697        16.44306        -0.54553
C         17.12021        14.30218        -1.15391
C         17.28471        17.14380        -0.41796
C         15.96849        19.32478        -0.67333
C         17.20374        18.64058        -0.68565
C         18.51452         2.09321        -0.45693
C         18.51586         3.54911        -0.34614
C         19.72529         1.41967        -0.70612
C         19.74663         4.26496        -0.59815
C         18.54639         6.42114        -0.39924
C         18.50441         7.81011        -0.56188
C         19.74337         5.68961        -0.62980
C         19.67759         8.52959        -0.89922
C         18.38957        10.65501        -0.87703
C         18.36320        12.04453        -1.46819
C         19.65086         9.96429        -1.03339
C         19.63121        12.84510        -1.23915
C         18.41396        15.00728        -1.24751
C         18.36384        16.51049        -1.34940
C         19.60656        14.29634        -1.24648
C         19.67822        17.17629        -1.05889
C         18.41969        19.30847        -0.85140
C         19.67442        18.60573        -0.90503
C         20.96730         2.09745        -0.81142
C         20.96590         3.55706        -0.76575
C         22.18372         1.41522        -1.03135
C         22.17111         4.26802        -0.90816
C         20.93714         6.40359        -0.91290
C         20.91951         7.82812        -1.04691
C         22.15568         5.68403        -1.01630
C         22.11396         8.52817        -1.33061
C         20.82045        10.69969        -1.29529
C         20.82173        12.13425        -1.30725
C         22.09216         9.99148        -1.69651
C         22.10996        12.86117        -1.63170
C         20.88202        15.00967        -1.17955
C         20.87564        16.44257        -1.01495
C         22.09402        14.31230        -1.21881
C         22.12805        17.13294        -0.89471
C         20.89324        19.28774        -0.80393
C         22.13936        18.59040        -0.76747
C         23.43440         2.08252        -1.10278
C         23.48192         3.54501        -0.72823
C         24.64814         1.43305        -1.32495
C         24.66184         4.28056        -1.30777
C         23.36067         6.41307        -1.23092
C         23.34108         7.82665        -1.38680
C         24.58168         5.69273        -1.40471
C         24.59305         8.54881        -1.40364
C         23.35532        10.72149        -1.28612
C         23.35544        12.11467        -1.20902
C         24.57643         9.99676        -1.18322
C         24.56560        12.83390        -0.97492
C         23.33391        14.99730        -1.05260
C         23.32584        16.41282        -0.92682
C         24.57745        14.26856        -0.95102
C         24.61562        17.18266        -1.05358
C         23.33177        19.26024        -0.53699
C         24.58990        18.48535        -0.25876
C         25.89131         2.14389        -1.44032
C         25.87085         3.60122        -1.52974
C         27.11970         1.50442        -1.50682
C         27.04385         4.31024        -1.94371
C         25.75002         6.42256        -1.71666
C         25.79324         7.85053        -1.50709
C         26.86756         5.67366        -2.14859
C         26.97811         8.48314        -0.78420
C         25.76922        10.70373        -0.95429
C         25.78530        12.11043        -0.81580
C         27.09611         9.99149        -1.03133
C         27.02857        12.81271        -0.55926
C         25.81287        14.95648        -0.75331
C         25.85193        16.37917        -0.73073
C         27.03647        14.23085        -0.53990
C         27.05245        17.06695        -0.56023
C         25.87280        19.23781        -0.48993
C         27.06468        18.53297        -0.57628
C         28.37717         2.19479        -1.66591
C         28.38859         3.60953        -2.26104
C         29.51967         1.50389        -1.34624
C         29.70375         4.40982        -1.84920
C         28.68022         6.80989        -1.70178
C         28.35944         7.86579        -0.92355
C         29.82693         5.89966        -1.54634
C         29.37380         8.38087         0.04060
C         28.13213        10.64346        -0.12782
C         28.22620        12.11386        -0.24627
C         29.33598         9.87251         0.33300
C         29.43220        12.77971         0.05899
C         28.26868        14.92124        -0.31539
C         28.28212        16.35185        -0.38090
C         29.47307        14.20640        -0.03019
C         29.51204        17.04553        -0.32234
C         28.32319        19.19118        -0.64164
C         29.53472        18.48083        -0.53556
C         30.87655         2.06567        -1.37938
C         30.94919         3.60455        -1.50515
C         32.01705         1.37859        -0.78508
C         32.10434         4.24939        -0.85588
C         30.89021         6.37291        -0.63366
C         30.64956         7.61558         0.15381
C         32.01145         5.62188        -0.40728
C         31.85887         8.34339         0.64944
C         30.59520        10.63851         0.49995
C         30.64183        12.03140         0.39086
C         31.81036         9.85347         0.78716
C         31.89176        12.76017         0.65872
C         30.71157        14.91377         0.16646
C         30.72712        16.33701        -0.07638
C         31.90046        14.22924         0.57479
C         31.95339        17.05664        -0.11717
C         30.77162        19.15421        -0.61727
C         31.99088        18.46601        -0.43476
C         33.23725         2.04643        -0.59837
C         33.24149         3.49866        -0.54122
C         34.45614         1.34979        -0.35302
C         34.45173         4.17351        -0.10356
C         33.10745         6.18259         0.47255
C         33.15144         7.68761         0.43829
C         34.43249         5.54374         0.18848
C         34.33378         8.41092         0.44816
C         33.09528        10.54154         0.66003
C         33.05391        11.97434         0.82026
C         34.29373         9.85478         0.50842
C         34.33017        12.45860         1.28902
C         33.09232        15.04276         0.70122
C         33.15994        16.38514         0.19862
C         34.31481        14.59105         1.26282
C         34.41584        17.06902         0.10794
C         33.23064        19.13646        -0.50436
C         34.45271        18.46454        -0.25876
C         35.68069         2.02866        -0.14590
C         35.67927         3.45839        -0.01205
C         36.92733         1.35048        -0.04621
C         36.88720         4.16180         0.26553
C         35.63166         6.27457         0.39365
C         35.60800         7.70928         0.46558
C         36.86876         5.58448         0.43315
C         36.82317         8.40990         0.59686
C         35.54441        10.64548         0.16610
C         35.54032        11.94744         0.94212
C         36.85561         9.87317         0.37110
C         36.77380        12.73596         1.25087
C         35.56901        15.06726         0.88223
C         35.63375        16.37944         0.33435
C         36.77639        14.20062         0.85669
C         36.90546        17.04474         0.23247
C         35.69555        19.12976        -0.30915
C         36.91739        18.45868        -0.04082
C         38.12062         2.05553         0.15480
C         38.11341         3.45214         0.32846
C         39.46092         1.36041         0.08306
C         39.42567         4.20367         0.42469
C         38.06441         6.28886         0.82605
C         38.01187         7.72406         0.95943
C         39.26040         5.58287         1.01707
C         39.20833         8.45484         1.31379
C         38.11269        10.59641         0.75423
C         38.08527        12.03807         1.15348
C         39.28507         9.82839         1.20903
C         39.37804        12.77171         1.06036
C         38.10646        14.88259         0.61028
C         38.11229        16.35849         0.49205
C         39.37720        14.17768         0.92565
C         39.34754        17.05196         0.53710
C         38.15242        19.14042        -0.01141
C         39.35292        18.46968         0.29337
C         40.49987         2.03235         0.93595
C         40.50088         3.37599         1.10325
C         41.59110         4.06606         1.77987
C         40.35116         6.19445         1.78478
C         40.33068         7.72227         1.94792
C         41.56812         5.39285         2.03140
C         41.52180         8.52227         2.32194
C         40.62997        10.52472         1.14249
C         40.57793        12.05141         1.24283
C         41.63400         9.82936         2.03013
C         41.77453        12.78750         1.29813
C         40.58729        14.90527         0.99035
C         40.58351        16.36448         0.79952
C         41.77740        14.17652         1.20222
C         41.76169        17.10849         0.84485
C         40.59162        19.17606         0.34868
C         41.76189        18.50441         0.62725
O         39.86581         6.85148         3.02554
O         13.91634        16.55258        -1.81179
O         28.23835        10.20864         1.26756
O          3.12246         3.48029         2.10030
O         16.65891        13.53768        -2.37326
O         12.41654        13.73052         1.86061
O          8.21826         3.88342        -1.22125
O         17.19322         6.14285         1.61207
O         34.28727        13.53716         2.17523
O         30.19839         5.35224        -2.86225
O         37.36315        14.26408        -0.50410
O         14.29793         6.04979         2.14506
O         37.82482        10.30655        -0.67033
O         31.69627         8.96413         1.96536
O          6.75786        12.10908        -0.86869
O         27.86583         6.43250        -2.77373
O         31.27009         2.74969        -2.63046
O          7.93207        10.52839         2.41689
O          8.58147        15.56506        -1.41548
O          2.31844         9.33232         2.74839
O          6.41667         6.24818        -0.92895
O         29.60207         7.49293         1.18920
O         10.05379         9.14470         2.28008
O         10.99386         2.44223         1.52493
O         37.45266        12.30925         2.47455
O         35.41857        10.94247        -1.25115
H         36.33519        11.05302        -1.59844
O         13.78430         3.18033         2.49476
H         14.00241         4.04010         2.92016
O         17.78717        16.94080         0.93163
H         17.07304        17.16533         1.56429
O         14.10306        15.59144         1.61021
H         13.79529        14.91168         2.25923
O         16.53196         3.35293         2.02344
H         16.75323         4.26331         2.33718
O         39.88302         4.38585        -0.96126
H         40.03352         3.47742        -1.32239
O         28.47097         3.45417        -3.68756
H         28.94933         4.23763        -4.04144
O         16.42377        12.50925         1.06126
H         15.78327        12.09554         1.67862
O         16.72500         8.23737        -2.04269
H         17.21665         8.86687        -2.61470
O         41.07952        10.27277        -0.23544
H         40.33450        10.49378        -0.83610
O         23.71124         3.55723         0.73247
H         22.95348         3.09430         1.14972
O         24.55422        18.11922         1.16176
H         24.53582        18.94687         1.68603
O         27.61648        10.18507        -2.37637
H         26.94613         9.85946        -3.01367
O         18.37010        11.76040        -2.91071
H         17.90591        12.52136        -3.33690
O         17.94505        16.86137        -2.69772
H         18.57548        16.45693        -3.32942
O         22.16956        12.88100        -3.10181
H         22.17598        11.93260        -3.39289
O          8.88036         6.88406        -1.42143
H          7.98585         6.88719        -1.83730
O         14.23219        12.63989        -1.92709
H         14.88908        13.10786        -2.50007
O         32.78448         5.81881         1.85824
H         32.08266         6.42759         2.17774
O         26.58948         8.25100         0.59299
H         27.20549         8.75105         1.18715
O          4.04131         7.44453         3.08444
H          3.67122         8.22356         3.56209
O          5.90356        16.32459        -1.74280
H          6.75829        15.95463        -2.07538
O         22.10051        10.04952        -3.18572
H         21.25227         9.66452        -3.49596
O         24.71780        17.55968        -2.46043
H         24.70047        16.73815        -2.99477
O         39.91797         1.45484        -1.29298
H         39.21456         1.08768        -1.86813
H          0.39734         1.44999        -0.03565
H          0.30813         3.87122         0.31986
H          2.53723         0.21707        -0.09855
H          0.29318         5.76373         0.94801
H          0.23251         8.13875         1.44094
H          0.19118        10.11963         1.12158
H          0.19618        12.48792         0.58901
H          0.20814        14.40763         0.87804
H          0.23318        16.85880         0.95771
H          1.46443        18.99641         0.95050
H          5.03328         0.25176        -0.20780
H          3.60133        20.25092         0.76903
H          7.43659         0.28929        -0.24173
H          6.02131        20.28955         0.44094
H          9.85320         0.35472        -0.83194
H          8.49072        20.35083         0.19355
H         12.62111         0.43854        -0.63363
H         11.00484        20.41095        -0.12212
H         14.78170         0.47771        -0.49263
H         13.48020        20.41361        -0.42820
H         17.21085         0.36008        -0.64399
H         15.97945        20.42520        -0.72201
H         19.71479         0.32181        -0.78623
H         18.43018        20.40696        -0.92564
H         22.15859         0.32246        -1.16738
H         20.89433        20.38178        -0.68658
H         24.66243         0.33813        -1.44485
H         23.32071        20.34923        -0.36946
H         27.16143         0.41411        -1.35568
H         25.88593        20.33804        -0.44203
H         29.41567         0.48609        -0.93679
H         28.35064        20.28702        -0.73548
H         31.93899         0.30288        -0.56784
H         30.78453        20.23693        -0.81022
H         34.45555         0.25040        -0.39752
H         33.24546        20.20953        -0.74644
H         36.95515         0.25503        -0.15370
H         35.71942        20.20411        -0.54564
H         39.35842         0.27408         0.35816
H         38.17809        20.22126        -0.21547
H         41.31274         1.41974         1.35529
H         42.47183         3.46915         2.06258
H         42.41406         5.87481         2.54160
H         42.27937         8.03352         2.95274
H         42.51398        10.39034         2.37870
H         42.73239        12.26113         1.41328
H         42.74144        14.69935         1.25980
H         42.72241        16.61712         1.04850
H         40.59785        20.26050         0.16824
H         42.71400        19.05127         0.67312
