         276
 CSIRO Nanostructure Databank - Neutral Graphene Oxide Data Set
C        -11.08794         0.76598         0.27695
C         -9.93375         1.46098         0.89284
C         -8.67620         0.63918         1.22762
C         -7.34107         1.47646         1.18043
C         -6.09776         0.67460         0.77410
C         -4.92327         1.36806         0.69538
C         -3.62342         0.66697         0.45796
C         -2.47673         1.50006        -0.06453
C         -1.22416         0.84035        -0.55668
C          0.14468         1.55222        -0.68090
C          1.40468         0.75880        -0.20146
C          2.67680         1.48494         0.22262
C          3.87670         0.80746         0.85123
C          5.03536         1.58012         1.52284
C          6.38318         0.81056         1.41425
C          7.64290         1.56491         1.05113
C          8.75270         0.81218         0.37138
C         10.03330         1.52014         0.10531
C         11.16399         0.68819        -0.29121
C         -9.93519         2.95591         0.79832
C         -8.64764         3.76756         0.98380
C         -7.45082         2.77758         0.33661
C         -6.12476         3.49482         0.33338
C         -4.96257         2.83684         0.62589
C         -3.70341         3.61011         0.76202
C         -2.42324         2.90565         0.45392
C         -1.21696         3.72237         0.15205
C          0.06379         3.01457        -0.16432
C          1.26294         3.68234         0.42485
C          2.56553         2.93955         0.56060
C          3.84624         3.69338         0.72291
C          5.11110         2.89275         0.69233
C          6.35500         3.60410         0.32367
C          7.67589         3.12340         0.93895
C          8.86010         3.71005         0.16070
C         10.04851         2.88766        -0.00254
C         -8.66563         5.07203         0.25405
C         -7.97406         6.22940         0.68455
C         -5.99100         4.85292        -0.26367
C         -5.05500         5.80720         0.43947
C         -3.76784         5.12609         0.83088
C         -2.47073         5.91376         0.78371
C         -1.19467         5.15929         0.60345
C          0.04067         5.89886         0.19693
C          1.28241         5.17594         0.53242
C          2.57354         5.81385         0.07300
C          3.87065         5.15700         0.47935
C          5.03514         5.81243         0.23644
C          6.28712         5.06204        -0.04773
C          7.54889         5.79739        -0.34634
C          8.81520         5.00812        -0.27118
C         -7.59686         7.23420        -0.25243
C         -6.38207         8.04615        -0.06569
C         -5.07672         7.31464         0.24945
C         -3.76893         8.00441        -0.06675
C         -2.47401         7.34243         0.26077
C         -1.28598         7.76363        -0.62632
C          0.03205         7.20372        -0.15115
C          1.25176         8.06753         0.08695
C          2.57633         7.32101         0.03238
C          3.75051         7.95675        -0.18792
C          5.05700         7.32364         0.27400
C          6.31570         7.97391        -0.25871
C          7.48727         7.28903        -0.37213
C         -6.23045         9.37876        -0.72867
C         -5.04855         9.88785        -1.11644
C         -3.77316         9.06501        -1.16524
C         -2.48709         9.86500        -1.13916
C         -1.26826         9.26064        -0.88362
C         -0.02132         9.95069        -0.98052
C          1.24645         9.36984        -0.68208
C          2.45321        10.01061        -0.91829
C          3.78394         9.29022        -0.89442
C          5.03163        10.06956        -0.55372
C          6.20992         9.43234        -0.36777
C        -11.06940        -0.54123        -0.04544
C         -9.88100        -1.36467         0.12774
C         -8.62845        -0.70268         0.50277
C         -7.45434        -1.39788         0.41262
C         -6.12570        -0.83986         0.87587
C         -4.92665        -1.54661         0.22224
C         -3.62965        -0.80603         0.17236
C         -2.60638        -1.33025        -0.84190
C         -1.22746        -0.65769        -0.71889
C         -0.00026        -1.42977        -0.27394
C          1.18500        -0.67576         0.31223
C          2.35032        -1.61355         0.11114
C          4.12849        -0.46862         0.48854
C          4.99956        -1.38859         1.27808
C          6.36052        -0.71348         1.30301
C          7.54978        -1.44256         0.83256
C          8.73507        -0.68252         0.31947
C         10.02800        -1.47107         0.32566
C         11.14952        -0.66665        -0.29178
C         -9.95325        -2.71332        -0.12539
C         -8.79035        -3.58355         0.05240
C         -7.48140        -2.86055         0.24023
C         -6.31221        -3.53254        -0.44138
C         -4.98454        -2.82786        -0.22574
C         -3.83909        -3.57994        -0.92731
C         -2.47507        -2.84315        -0.85750
C         -1.18789        -3.59506        -0.42310
C         -0.06187        -2.85658         0.07992
C          1.03482        -3.49910         0.95231
C          2.39771        -2.87910         0.61815
C          3.70562        -3.54814         0.76014
C          4.90364        -2.86559         0.85609
C          6.22217        -3.62705         0.86925
C          7.27696        -2.77581         0.06834
C          8.59193        -3.47367        -0.24940
C          9.79309        -2.85763        -0.25315
C         -8.74228        -4.98886        -0.44122
C         -7.59369        -5.70335        -0.46232
C         -6.27392        -5.03547        -0.07851
C         -5.07872        -5.78012        -0.72986
C         -3.75747        -5.05138        -0.51894
C         -2.59670        -5.73509        -0.32507
C         -1.25476        -5.08212        -0.30559
C         -0.02590        -5.79587         0.16885
C          1.11274        -5.03775         0.83141
C          2.42134        -5.78025         0.98147
C          3.75402        -5.02568         1.13496
C          4.95391        -5.74850         0.55711
C          6.10801        -5.03622         0.30820
C          7.24141        -5.64039        -0.37334
C          8.39499        -4.81356        -0.92406
C         -7.58023        -7.17952        -0.85343
C         -6.41257        -7.97214        -0.18549
C         -5.10863        -7.16916        -0.11429
C         -3.84799        -7.92174         0.09557
C         -2.58328        -7.23117        -0.29240
C         -1.32881        -7.98831        -0.05697
C         -0.11735        -7.27373         0.44497
C          1.16261        -8.01767         0.61427
C          2.43266        -7.18560         0.33731
C          3.67955        -8.03846         0.64266
C          4.96562        -7.22556         0.47163
C          6.16958        -7.85910        -0.20250
C          7.21014        -6.96371        -0.70846
C         -6.12484        -9.28534        -0.90123
C         -4.97131        -9.95146        -0.73160
C         -3.91708        -9.45187         0.25494
C         -2.56234       -10.12353         0.11677
C         -1.38073        -9.47125         0.10521
C         -0.06516       -10.13454        -0.25719
C          1.20301        -9.54788         0.42094
C          2.44193        -9.95788        -0.34651
C          3.61807        -9.29162        -0.23578
C          4.81588        -9.81195        -0.88171
C          6.00700        -9.18076        -0.84750
O         -3.00800         8.37396         1.12217
O          3.44520        -1.10380        -0.55553
O         -1.61745         5.58720         1.92709
O         -0.26165        -1.09856        -1.68443
O          7.35919         1.18204         2.42730
O          7.67937         3.69143         2.20536
O         -8.13014        -3.49017         1.39215
O          3.08887         3.25149         1.88393
O          6.04448        -7.83513         1.27756
O         -6.44373         5.08147        -1.38698
O         -5.81283         8.01741         1.27653
O          2.46315         1.05971        -1.14402
O          7.29130        -1.38561         2.23403
O         -4.11453        -3.49782        -2.31151
O          6.68041         5.26783        -1.45364
O         -4.47946        -7.19805         1.20173
O          6.68338        -2.40597        -1.11780
O          0.33273        -7.67876         1.76078
O         -3.15620        -0.30727         1.45720
O         -0.22548        -5.58445        -1.25247
O         -1.79368        -7.71883        -1.44040
O         -1.53469        -3.24261        -1.82838
O         -2.85317         3.04436         1.82603
O          1.52875        -5.61030         2.10304
O         -2.21187         1.43075        -1.48728
O          8.38231         0.06892        -0.86143
O         -8.80096         0.22505         2.62215
O          5.72215         2.71457        -0.62806
O         -4.75924         5.48977         1.82956
O          4.04232        -4.88721         2.62633
O         -0.68005         3.76172        -1.20204
O          1.04866         4.38028         1.71312
O         -7.52976        -7.30830        -2.27579
H         -6.74525        -6.79449        -2.59228
O          4.19969        -6.20253         3.19024
H          5.12822        -6.45505         2.95645
O         -7.85920         2.47252        -0.99161
H         -7.54122         3.19114        -1.58485
O         -6.64567        -3.38530        -1.84200
H         -5.78838        -3.37643        -2.35731
O         10.36733        -1.64469         1.73293
H         11.18451        -2.18186         1.78735
O         -7.04242         1.91246         2.51764
H         -6.84293         1.12122         3.06186
O         -7.56744         6.37729         1.94961
H         -7.78401         5.56971         2.47686
O          4.82529         1.83935         2.90069
H          5.70682         2.01193         3.30407
O          6.66188        -3.80715         2.23082
H          5.87656        -4.10809         2.74894
O          0.35693         1.65663        -2.09536
H         -0.45472         2.04689        -2.48848
O         -3.13317        -0.98358        -2.13941
H         -3.47106        -1.82330        -2.56062
O          2.45453        -6.90200        -1.08165
H          2.31730        -7.73505        -1.58253
O          0.67591        -3.19345         2.32447
H          1.11788        -3.87687         2.88789
O         -5.24232        -5.88680        -2.15708
H         -4.81577        -5.07407        -2.55823
O          5.11376         7.65405         1.70430
H          4.33288         7.25786         2.14678
O          4.50646        -1.36015         2.64433
H          5.25934        -1.60185         3.22813
O          1.11713         8.48449         1.48779
H          0.85308         7.70613         2.02431
O         -6.08187        -5.16818         1.34229
H         -6.82567        -4.69050         1.78597
O          0.94266        -0.49829         1.72727
H          0.91958        -1.37954         2.18197
O          3.95725         8.92614        -2.32009
H          3.22796         8.31784        -2.56692
O         -8.43330         3.97326         2.36501
H         -8.82863         3.20790         2.84751
O         -1.54969         7.09886        -1.89635
H         -0.71684         7.05412        -2.41077
O         -6.80801        -8.27671         1.17556
H         -6.51288        -7.52075         1.73380
O          0.09367        -9.96947        -1.68179
H         -0.58010        -9.33396        -2.01082
O         -6.06264        -1.14148         2.30338
H         -6.96171        -0.99769         2.67840
O          3.59058        -8.48145         2.01161
H          4.50163        -8.73424         2.28575
O          1.29816       -10.15028         1.72580
H          2.00267        -9.66582         2.21880
O         -4.39353        -9.77171         1.57564
H         -5.27043        -9.32428         1.67976
O          2.50103         5.48084        -1.37820
H          3.38656         5.63328        -1.77646
O          9.59642        -5.58346        -0.92423
H          9.79772        -5.84023        -0.00115
O        -10.38508         2.32545         2.01096
H         -9.70764        -0.12643         2.75067
O         -3.84031         8.33175        -2.42463
H         -3.65778         8.95544        -3.15746
H         12.03772        -1.21364        -0.64617
H         12.05662         1.21348        -0.66681
H         10.97630         3.38952        -0.32307
H          9.71002         5.44904        -0.74114
H          8.40765         7.83204        -0.64134
H          7.13487        10.02185        -0.26463
H          4.99915        11.16779        -0.61082
H          2.43855        10.99576        -1.41469
H         -0.03955        10.98778        -1.35470
H         -2.52751        10.94215        -1.36905
H         -5.01680        10.90179        -1.54689
H         -7.13887         9.99567        -0.81320
H         -8.04942         7.21391        -1.25460
H         -8.94994         5.03282        -0.80884
H        -10.74771         3.43329         0.20533
H        -12.00197         1.36120         0.13756
H        -11.96925        -1.02068        -0.45743
H        -10.88944        -3.14278        -0.51385
H         -9.69635        -5.46485        -0.71888
H         -8.54050        -7.64921        -0.51993
H         -6.89857        -9.67904        -1.57803
H         -4.80725       -10.91152        -1.24560
H         -2.56681       -11.22539         0.10576
H         -0.10283       -11.23104        -0.02726
H          2.40337       -10.89429        -0.92476
H          4.71750       -10.77058        -1.41329
H          6.87801        -9.60933        -1.36461
H          7.99359        -7.37862        -1.36063
H          8.15350        -4.59152        -2.00027
H         10.67169        -3.41708        -0.61853
