         720
 CSIRO Nanostructure Databank - Neutral Graphene Oxide Data Set
C         23.07968        27.38593         0.42539
C         23.08576        28.83468         0.47143
C         23.01808        31.80102         0.91324
C         22.96090        33.03627         0.39358
C         23.11390        36.04340        -0.05451
C         23.12826        37.40038        -0.40831
C         23.01464        40.18993        -1.52551
C         23.02287        41.51081        -1.77773
C         23.12812        44.45062        -2.43396
C         23.12514        45.85451        -2.44677
C         25.44793        24.54543         0.77743
C         24.28428        25.22756         0.57475
C         25.54647        27.41970         0.41070
C         24.24220        26.66576         0.50002
C         25.47950        28.76003         1.14831
C         24.20714        29.52034         0.81188
C         25.43312        31.57086         0.16161
C         24.29851        31.01029         1.07485
C         25.44630        33.11812         0.22203
C         24.12826        33.68983        -0.31548
C         25.37007        35.74717        -0.92614
C         24.20646        35.20665        -0.30763
C         25.15970        36.97250        -1.58506
C         24.12482        37.88268        -1.27485
C         25.52144        40.00731        -1.99691
C         24.17550        39.28942        -1.78193
C         25.45658        41.49591        -1.76696
C         24.24485        42.21601        -2.34935
C         25.49269        44.41488        -1.80067
C         24.26751        43.71943        -2.11247
C         25.49476        45.87790        -1.81129
C         24.29275        46.57893        -2.15509
C         25.45626        48.70659        -1.86881
C         24.31674        48.00841        -2.17999
C         27.97665        23.07090         1.40782
C         27.92788        24.48725         1.18341
C         26.73181        25.21245         0.93041
C         27.96865        27.36736         1.02221
C         26.76831        26.62963         0.83145
C         27.95311        28.82552         0.91273
C         26.75699        29.52769         0.84792
C         27.92000        31.65299         0.43463
C         26.75402        30.94142         0.54267
C         27.92147        33.10612         0.12913
C         26.69303        33.77493        -0.34308
C         27.99797        35.76522        -1.05983
C         26.69394        35.07040        -0.83785
C         28.11353        37.21603        -1.40601
C         27.01509        38.00251        -1.93753
C         27.99574        40.15327        -1.39128
C         26.83567        39.36068        -1.73721
C         27.98969        41.53482        -1.33551
C         26.70154        42.26537        -1.41030
C         27.99185        44.49970        -1.59824
C         26.68731        43.72675        -1.57811
C         27.82502        45.85777        -0.91465
C         26.64083        46.61171        -1.46255
C         27.86591        48.75883        -1.15802
C         26.66079        48.03386        -1.48243
C         27.90172        50.17535        -1.12415
C         30.34999        23.11913         2.16069
C         29.08782        22.42022         1.87051
C         30.47996        24.51751         1.63858
C         29.20170        25.22249         1.20527
C         30.43809        27.39005         1.22027
C         29.18511        26.68936         1.21473
C         30.39031        28.83191         1.01070
C         29.21102        29.52801         0.88378
C         30.45625        31.67764         0.34626
C         29.20923        31.04781         0.94825
C         30.46867        32.97451        -0.12573
C         29.23378        33.79859        -0.12176
C         30.53108        35.77601        -1.14946
C         29.19420        35.10482        -0.80510
C         30.47212        37.21767        -0.70321
C         29.24407        37.93740        -1.10672
C         30.43830        40.17622        -0.82021
C         29.31116        39.40829        -1.47025
C         30.45081        41.64891        -1.00025
C         29.21293        42.31345        -1.15558
C         30.34837        44.43086        -0.71443
C         29.18264        43.72780        -1.07433
C         30.28424        45.89955        -0.47448
C         29.10336        46.65862        -0.90182
C         30.32828        48.80250        -0.61061
C         29.09963        48.04886        -0.87242
C         30.30172        50.23103        -0.58992
C         29.05685        50.88016        -0.84217
C         32.80772        20.24051         2.06815
C         31.73423        20.91316         2.50299
C         32.96279        23.10762         2.18231
C         31.66014        22.38692         2.45149
C         32.98820        24.61410         2.10210
C         31.64008        25.38430         2.16478
C         32.92759        27.30824         0.91926
C         31.63897        26.70586         1.41925
C         32.92321        28.80475         1.12205
C         31.65106        29.58218         1.11843
C         32.90158        31.62370         0.56585
C         31.69188        30.98114         0.62858
C         33.02484        32.92046        -0.08721
C         31.73630        33.62871        -0.50634
C         32.98823        35.77762        -0.46906
C         31.78992        35.10042        -0.62770
C         33.04449        37.24167        -0.50316
C         31.74519        37.96036        -0.47133
C         32.99982        40.17731        -0.85993
C         31.71767        39.46661        -0.55977
C         33.00812        41.72491        -0.97451
C         31.63857        42.36499        -0.76814
C         32.88067        44.54378        -0.68318
C         31.58562        43.75686        -0.59261
C         32.83489        45.90442         0.04031
C         31.52819        46.66661        -0.13430
C         32.76093        48.85875        -0.20733
C         31.55169        48.13013        -0.36498
C         32.71421        50.27306        -0.11944
C         31.49810        50.96661        -0.26926
C         32.61674        53.12290         0.20186
C         31.51303        52.41412        -0.15254
C         35.46120        18.95959         2.02120
C         35.28909        20.22683         1.53252
C         33.93101        20.87727         1.28534
C         35.13964        23.06782         0.98372
C         34.06121        22.38549         1.50631
C         35.22030        24.51487         0.95735
C         34.17177        25.23886         1.46898
C         35.44207        27.41539         1.06979
C         34.18430        26.73486         1.58334
C         35.43774        28.77429         0.92420
C         34.15731        29.50193         0.61823
C         35.39613        31.68766         1.24813
C         34.12814        30.93892         1.05483
C         35.28411        33.14877         0.93954
C         34.21415        33.72322         0.22315
C         35.44945        35.82648         0.06740
C         34.23148        35.10770        -0.07288
C         35.55231        37.23224        -0.45813
C         34.21300        37.93378        -0.34400
C         35.38742        40.16823         0.02561
C         34.24151        39.41027        -0.55477
C         35.39396        41.64951        -0.01217
C         34.05149        42.33257         0.07286
C         35.28067        44.49409        -0.00545
C         34.12161        43.81703        -0.17437
C         35.35546        45.96827        -0.23173
C         34.05131        46.72662        -0.32700
C         35.25075        48.84307         0.05154
C         34.04182        48.17626        -0.08642
C         35.26495        50.34778        -0.11825
C         33.94935        50.97853         0.31894
C         35.18153        53.25546         0.68785
C         33.88666        52.46764         0.56497
C         35.26778        54.69182         0.39729
C         37.85036        18.84179         1.43591
C         36.73115        18.29784         2.02341
C         37.77782        20.23786         0.95224
C         36.46583        20.99072         1.08913
C         37.52882        22.98702        -0.04912
C         36.22518        22.27073         0.29915
C         37.43874        24.42953        -0.63727
C         36.20335        25.28525         0.03690
C         37.61731        27.40587        -0.15111
C         36.67693        26.58597         0.77131
C         37.84292        28.81390         0.40790
C         36.66456        29.55481         0.83722
C         37.97797        31.61826         1.09106
C         36.69288        30.93023         1.08424
C         38.17966        32.89278         1.55971
C         36.31685        33.99865         1.32212
C         37.89710        35.86454         0.70709
C         36.56015        35.24070         0.70846
C         37.87100        37.32109         0.52715
C         36.73189        37.97395         0.15884
C         37.88808        40.23303         0.44041
C         36.64144        39.44159         0.37093
C         37.84506        41.64466         0.30519
C         36.56836        42.32639         0.17832
C         37.76729        44.53003        -0.08668
C         36.53936        43.80774         0.47985
C         37.75402        45.95330         0.46108
C         36.52268        46.73154         0.22562
C         37.71536        48.88683         0.59352
C         36.48486        48.11629         0.27138
C         37.70437        50.35952         0.44024
C         36.52794        51.03280         0.36683
C         37.75314        53.26090         0.38109
C         36.51533        52.50303         0.60778
C         37.73956        54.64132         0.49503
C         36.46569        55.33639         0.44225
C         40.56620        16.30991         2.17657
C         39.35635        16.93552         2.12999
C         40.20963        18.74623         0.71729
C         39.14899        18.17073         1.38657
C         40.05131        19.89634        -0.20995
C         38.72045        20.71055        -0.11573
C         40.18896        23.26552        -1.44157
C         38.44328        22.10909        -0.58145
C         40.06434        24.60327        -0.99479
C         38.81499        25.22937        -0.64045
C         40.10876        27.34399        -0.61786
C         38.88907        26.61745        -0.42150
C         40.10593        28.81878        -0.53382
C         39.01531        29.47432         0.21255
C         40.24987        31.69287         0.03007
C         39.24662        30.83251         0.82512
C         40.51046        33.03883         0.69946
C         39.38416        33.78330         1.42382
C         40.35207        35.95694         0.57330
C         39.11052        35.19723         0.82828
C         40.35851        37.37351         0.64513
C         39.08192        38.09137         1.01464
C         40.32613        40.26517         0.58163
C         39.09643        39.55008         0.60083
C         40.32076        41.70873         0.47488
C         39.06965        42.38904         0.35356
C         40.26594        44.51864         0.17761
C         39.06678        43.81109         0.21721
C         40.24697        45.99057         0.00115
C         39.05234        46.69021         0.55465
C         40.30178        48.91818         0.36012
C         39.05006        48.18173         0.66269
C         40.27616        50.32161         0.37282
C         39.00324        51.09354         0.74733
C         40.27615        53.18649         0.26951
C         38.98373        52.45330         0.02762
C         40.26203        54.66612         0.36507
C         38.99430        55.39297         0.58528
C         40.27661        57.38680         1.29778
C         39.05388        56.71625         0.97416
C         42.95185        16.25318         1.52148
C         41.71251        16.84000         1.49125
C         42.76844        18.96112         0.69080
C         41.54155        18.03679         0.58235
C         42.59278        20.15003        -0.24110
C         41.35414        20.40600        -0.74370
C         42.59638        23.15911        -1.07170
C         41.38159        22.57461        -1.49021
C         42.55111        24.56836        -0.98006
C         41.32947        25.29156        -0.97188
C         42.58398        27.46079        -1.04037
C         41.33814        26.71870        -0.89039
C         42.63593        28.83194        -0.95482
C         41.37606        29.57358        -0.77233
C         42.55022        31.69680        -1.12905
C         41.58580        30.95345        -0.17918
C         42.60271        33.20841        -0.84406
C         41.61111        33.82996         0.10303
C         42.76564        36.01410         0.01799
C         41.55069        35.30186         0.20853
C         42.80047        37.41198         0.29550
C         41.56372        38.10970         0.54824
C         42.80177        40.28877         0.70771
C         41.54179        39.54181         0.63007
C         42.80817        41.75550         0.46959
C         41.54033        42.44891         0.43400
C         42.74724        44.63179         0.19732
C         41.52784        43.86324         0.25804
C         42.79214        46.01571        -0.05222
C         41.51367        46.75773        -0.17885
C         42.71271        48.92084        -0.09180
C         41.51216        48.22620         0.06182
C         42.73289        50.34315         0.02488
C         41.48166        51.03440         0.19069
C         42.75478        53.12909         0.58913
C         41.44994        52.48666         0.25894
C         42.75686        54.53605         1.05631
C         41.54086        55.35963         0.77401
C         42.75477        57.35848         1.63967
C         41.49187        56.73759         1.28726
C         44.05590        16.83973         0.80810
C         45.15290        18.77996        -0.28756
C         44.00843        18.12722         0.33626
C         45.14690        20.18792        -0.42262
C         43.82778        20.89396        -0.77607
C         44.79998        23.22469        -0.13575
C         43.75654        22.43431        -0.59499
C         45.05329        24.58518        -0.55488
C         43.85060        25.26009        -1.06741
C         45.14575        27.43252        -0.97445
C         43.86496        26.74688        -1.22092
C         45.15297        28.83346        -0.98408
C         43.89201        29.57663        -1.00250
C         45.16265        31.69177        -1.17556
C         43.88949        30.95814        -1.05061
C         45.16496        33.20440        -1.16897
C         43.88752        33.96806        -0.95098
C         45.18707        36.02114        -0.41426
C         43.96134        35.34273        -0.38777
C         45.23915        37.38857        -0.01254
C         44.05171        38.07562         0.29316
C         45.28353        40.27162         0.12428
C         44.08675        39.52056         0.61001
C         45.26388        41.75973         0.06368
C         43.99330        42.45033         0.35645
C         45.32828        44.66384         0.21505
C         44.00899        43.92009         0.42837
C         45.26028        46.08213        -0.19573
C         44.01472        46.73583        -0.21350
C         45.22188        48.94682        -0.45156
C         43.92000        48.19678        -0.65447
C         45.21801        50.31530        -0.18817
C         43.98388        51.03191        -0.03147
C         45.28582        53.30916        -0.09097
C         43.92557        52.53948        -0.19368
C         45.30731        54.59549         0.75860
C         44.05741        55.27152         1.24673
C         43.94887        56.71549         1.55821
C         47.39372        18.69467        -1.30324
C         46.31406        18.06557        -0.69335
C         47.47731        20.10752        -1.30652
C         46.39262        20.80290        -0.72658
C         47.55557        22.99497        -0.90364
C         46.63764        22.16811        -0.35037
C         47.60832        24.44253        -0.54511
C         46.30582        25.22079        -0.58555
C         47.58088        27.36309        -0.85289
C         46.35369        26.66070        -0.84866
C         47.61535        28.78173        -0.87635
C         46.39931        29.53031        -0.92869
C         47.62484        31.63564        -0.65877
C         46.42364        30.95521        -0.90411
C         47.63907        33.13202        -0.38577
C         46.41787        33.91455        -0.83309
C         47.71157        36.00598        -0.71280
C         46.41921        35.27020        -0.63955
C         47.78343        37.41267        -0.27927
C         46.54665        38.05898         0.16786
C         47.79547        40.31760        -0.09584
C         46.58697        39.58371         0.26624
C         47.76761        41.74820        -0.18240
C         46.55470        42.48299        -0.00169
C         47.75700        44.58498        -0.36239
C         46.55792        43.88271        -0.07028
C         47.69809        46.01779        -0.48687
C         46.50371        46.74565        -0.45334
C         47.80417        49.01694        -0.68692
C         46.46930        48.21027        -0.91465
C         47.70118        50.34876         0.02053
C         46.48163        51.04801         0.02514
C         47.69383        53.11443         0.56154
C         46.48795        52.44733         0.27435
C         47.73097        54.57769         0.59336
C         46.60337        55.31816         0.62679
C         49.57875        20.29527        -2.59214
C         48.55264        20.90311        -1.90759
C         49.80122        23.21404        -2.14246
C         48.53266        22.40221        -1.82728
C         50.11165        24.53177        -1.45861
C         48.92487        25.15510        -0.71740
C         50.09479        27.34980        -1.12722
C         48.88391        26.67872        -0.48525
C         50.12103        28.82265        -0.76566
C         48.86519        29.50153        -0.74438
C         50.10391        31.58186        -0.19338
C         48.83656        30.90537        -0.56000
C         50.15318        33.08898        -0.23828
C         48.96469        33.72051        -0.93818
C         50.31276        35.94089        -0.68534
C         48.99367        35.24506        -0.91155
C         50.26177        37.45022        -0.54719
C         48.96239        38.12638        -0.32485
C         50.22963        40.25954        -0.25899
C         49.00035        39.57398        -0.19472
C         50.23211        41.66302        -0.79877
C         48.98102        42.46112        -0.43618
C         50.22924        44.57822        -0.94594
C         48.98129        43.85124        -0.53627
C         50.24621        46.07398        -0.77699
C         48.98365        46.73478        -0.30721
C         50.25195        48.92859        -0.00473
C         48.96349        48.20294        -0.14482
C         50.18315        50.27674         0.42517
C         48.91621        50.98498         0.40676
C         50.10997        52.98851         1.19001
C         48.89906        52.36718         0.74182
C         50.65177        21.05921        -3.13485
C         52.83669        23.46742        -2.59279
C         50.79596        22.39184        -2.85775
C         52.66957        24.64088        -1.81914
C         51.33959        25.18835        -1.44780
C         52.58806        27.43050        -1.04190
C         51.37460        26.56751        -0.75493
C         52.59900        28.77738        -0.79857
C         51.35106        29.49990        -0.61080
C         52.59372        31.58846         0.02034
C         51.38556        30.87765        -0.27714
C         52.58704        33.01148         0.22317
C         51.45734        33.77985        -0.15186
C         52.65728        35.90121         0.24716
C         51.47975        35.19084        -0.16896
C         52.59233        37.38294         0.40544
C         51.43934        38.15703        -0.02958
C         52.68497        40.29813         0.14786
C         51.44931        39.55969        -0.00211
C         52.62576        41.81472         0.23378
C         51.48828        42.42911        -0.53145
C         52.81452        44.58448        -0.79517
C         51.55560        43.78320        -1.17163
C         52.79514        46.08499        -0.63260
C         51.52947        46.93461        -0.84135
C         52.63117        48.85846         0.44690
C         51.46039        48.21913        -0.02118
C         52.59191        50.18015         0.92747
C         51.37148        50.92356         0.86743
C         51.28844        52.29625         1.26700
C         55.17312        23.27415        -2.08308
C         54.02870        22.74194        -2.65870
C         55.14150        24.58531        -1.57400
C         53.89493        25.25607        -1.39815
C         54.81735        27.35448        -0.14906
C         53.91727        26.76196        -1.22546
C         54.99145        28.70102        -0.08890
C         53.92505        29.55843        -0.76788
C         55.05395        31.51025         0.36956
C         53.84912        30.90074        -0.05183
C         55.10218        32.91700         1.02721
C         53.70315        33.71177         0.95066
C         55.07725        35.92273         0.80558
C         53.79135        35.19993         0.63992
C         55.14064        37.41867         0.71875
C         53.86412        38.18765         0.65617
C         55.16772        40.29059         0.15867
C         53.88411        39.61765         0.29037
C         55.15628        41.70815         0.02130
C         53.96395        42.46571        -0.05518
C         55.26024        44.55961        -0.18153
C         54.02026        43.84968        -0.31659
C         55.31998        46.07720        -0.19731
C         53.95875        46.68502         0.10788
C         55.21427        48.85627         0.66241
C         53.89763        48.09167         0.58146
C         55.01566        50.14800         1.41436
C         53.81323        50.75197         1.48750
C         57.51229        24.98273        -2.33209
C         56.45324        25.26110        -1.44865
C         57.68219        27.26254        -0.66790
C         56.65358        26.31604        -0.54019
C         57.63679        28.58676        -0.00774
C         56.26050        29.33671         0.32191
C         57.55224        31.49842         0.84768
C         56.27014        30.80369         0.39875
C         57.57452        32.99798         0.55334
C         56.27782        33.68420         0.41379
C         57.58789        35.90314         0.39667
C         56.29293        35.17920         0.33871
C         57.60945        37.31206         0.35310
C         56.33046        38.04312         0.01455
C         57.65052        40.18825         0.14431
C         56.38099        39.55210         0.15950
C         57.72430        41.63217        -0.19092
C         56.43136        42.39960        -0.23120
C         57.64306        44.48151         0.51083
C         56.45191        43.85968        -0.02479
C         57.53636        45.82532         1.01294
C         56.39242        46.62521         0.73105
C         57.39499        48.46872         1.95965
C         56.33367        47.95327         1.17200
C         58.68557        25.74045        -2.29132
C         60.00158        27.68010        -1.44662
C         58.77250        26.90588        -1.51005
C         60.05448        28.85312        -0.78170
C         58.79922        29.49202        -0.31171
C         60.05101        31.62645         0.46130
C         58.78572        30.89744         0.18871
C         60.01614        32.95235         0.68989
C         58.76061        33.69911         0.58155
C         60.00000        35.88600         0.63392
C         58.78974        35.16081         0.52334
C         60.01727        37.26936         0.64324
C         58.82611        38.02275         0.49099
C         60.05942        40.21895         0.60908
C         58.83831        39.47261         0.40280
C         60.14336        41.56526         0.49945
C         59.03389        42.42395        -0.04688
C         59.88717        44.32615         1.44096
C         58.83052        43.74611         0.69992
C         59.77352        45.58823         1.99297
C         58.60974        46.37300         1.77293
C         58.49973        47.70015         2.26339
O         33.81886        39.63700        -1.94633
O         41.76165        33.16636         1.43411
O         39.08870        22.48794        -1.75691
O         30.92390        37.46092         0.65463
O         34.57882        31.24322         2.40022
O         44.80133        44.42742         1.56718
O         42.90012        33.95204        -2.05360
O         45.10080        40.89561        -1.17385
O         55.36403        36.75216         1.98646
O         48.61362        23.21223        -3.04590
O         50.59670        36.81246        -1.83529
O         48.30455        35.79512        -2.06660
O         34.80210        46.39325        -1.52184
O         42.71366        53.42099         2.01960
O         33.34051        23.92914         3.35207
O         40.39110        29.47776        -1.85099
O         56.04695        34.36819        -0.86235
O         33.79901        51.48889         1.66362
O         32.39660        29.29972         2.36650
O         49.92470        32.40202         1.03360
O         45.24021        32.49212        -2.44153
O         40.65393        46.40748        -1.34591
O         54.55047        27.23043        -2.41687
O         28.59106        33.87381         1.23159
O         37.55066        21.17978         2.05384
O         38.94749        19.72823        -1.16321
O         43.60220        39.91418         1.92007
O         48.56478        24.54931         0.58923
O         35.90344        52.87488         1.89332
O         30.59788        46.28219         0.94265
O         26.03853        37.28947        -2.63031
O         35.34252        25.68192        -1.00478
O         32.56696        32.92675        -1.48613
O         48.87694        47.34484         1.04753
O         35.63059        39.73180         1.42716
O         52.98763        37.85527         1.75772
O         51.84900        23.03887        -3.47977
O         46.68221        38.75474         1.45931
O         38.37063        48.60084         1.89445
O         38.46973        46.05879         1.72751
O         45.78788        22.64564         0.66515
O         30.21553        24.65069         0.23770
O         30.86627        22.96268         3.52369
O         24.75518        39.49869        -3.12304
O         57.08995        41.92121        -1.48989
O         53.74648        46.95561         1.51973
O         37.18138        33.51859         2.30156
O         44.93014        54.50455         2.15836
O         43.98438        25.88068        -2.40487
O         58.48471        30.62364        -1.22547
O         57.10029        28.67669         1.31885
O         33.43458        42.11473        -2.22948
O         55.40646        32.74368         2.38131
O         30.89741        39.95204         0.55451
O         55.70384        26.48173         0.48013
O         25.70429        41.82406        -0.37673
O         41.26147        21.23265        -1.88029
O         41.14664        55.28595        -0.64611
O         53.21434        45.49243        -1.89234
O         49.96872        45.46261        -2.08592
O         29.69543        39.42407        -2.88951
H         29.02864        38.91028        -3.39396
O         42.89705        19.40419         2.05906
H         43.76313        19.85068         2.15957
O         33.52406        42.09473         1.39176
H         33.86359        41.23804         1.73101
O         24.23629        42.05367        -3.78769
H         24.23819        41.08069        -3.96710
O         49.92217        27.27086        -2.55835
H         50.71632        27.64892        -2.99209
O         48.97436        26.94191         0.94768
H         48.59660        26.13591         1.38814
O         37.06509        24.26044        -2.00853
H         36.31904        24.92069        -2.14637
O         57.60163        31.32502         2.27408
H         56.78802        31.80464         2.62592
O         55.57768        49.22561        -0.69839
H         55.69919        48.39034        -1.21608
O         24.71037        31.13101         2.46162
H         24.93153        32.08724         2.60127
O         48.31864        49.39150        -2.01067
H         47.93457        50.25811        -2.26182
O         39.06065        51.33582         2.16462
H         38.87214        50.47776         2.61154
O         37.37255        26.20563         1.97225
H         37.47527        26.99794         2.53875
O         56.05553        37.80523        -1.40420
H         56.78673        38.19427        -1.92919
O         45.59131        53.75439        -1.44891
H         46.43340        54.25846        -1.41269
O         31.36360        25.68872         3.54283
H         31.84763        25.02325         4.08795
O         47.55397        33.33154         1.04914
H         48.28055        32.81403         1.48022
O         42.28880        30.75660         1.06051
H         41.63127        30.70392         1.79450
O         33.02732        27.03196        -0.50294
H         33.85358        26.47300        -0.68912
O         37.62092        44.56927        -1.52071
H         38.43314        44.95020        -1.91658
O         43.41937        52.69092        -1.55190
H         44.18528        52.68642        -2.16758
O         43.85837        20.74586        -2.22358
H         42.93360        20.83996        -2.55713
O         34.08622        29.53891        -0.83213
H         33.89661        28.61648        -1.13805
O         35.71118        21.91100        -1.02844
H         35.93739        22.66445        -1.63464
O         43.65340        48.16871        -2.09475
H         44.50997        47.97436        -2.54829
O         59.47403        42.81873        -1.37684
H         58.69088        42.71403        -1.97045
O         39.84692        30.59708         2.14535
H         39.13388        30.34282         2.76913
O         25.49101        33.50522         1.63505
H         26.42155        33.70913         1.87871
O         51.60418        47.45385        -2.18945
H         52.04890        46.76791        -2.74015
O         39.00592        38.09064         2.47563
H         39.80825        38.53507         2.82220
O         42.05667        31.54089        -2.46873
H         42.49114        32.23259        -3.01889
O         35.83188        37.15836        -1.89467
H         35.41875        37.93486        -2.33216
O         49.09258        33.31647        -2.31552
H         48.64788        34.00305        -2.86576
O         28.28204        44.77837        -3.00110
H         28.57031        43.94669        -3.43261
O         53.19558        33.69583         2.31311
H         53.95984        33.33090         2.86472
O         27.53931        45.57612         0.48859
H         27.76294        46.36844         1.02048
O         23.96986        33.41001        -1.72777
H         24.15509        32.45116        -1.87174
O         25.45421        28.49307         2.56764
H         25.28158        29.35837         3.01031
O         34.08753        27.03689         2.99724
H         34.69115        26.43914         3.48525
O         51.49335        26.32269         0.66787
H         50.65925        26.62007         1.11403
O         35.26534        50.58575        -1.56999
H         35.99900        50.07042        -1.96802
O         36.93782        27.58813        -1.41044
H         37.58210        27.92949        -2.06464
O         38.89434        52.14772        -1.39628
H         39.13514        52.95499        -1.89814
O         51.63846        43.57723        -2.61814
H         51.32208        44.41395        -3.03503
O         36.60607        43.93506         1.91867
H         35.76092        43.61309         2.29731
O         29.25900        31.39115         2.36948
H         29.20129        32.37498         2.42168
O         25.74243        27.77037        -0.99965
H         25.76541        26.93776        -1.51739
O         33.55002        20.64281        -0.09727
H         34.24388        21.04966        -0.68105
O         33.01309        44.74690        -2.10435
H         33.22270        43.83603        -2.47294
O         46.30012        48.06120        -2.36234
H         47.17182        48.28696        -2.77727
O         39.81979        34.07126         2.77145
H         40.80600        34.01757         2.77224
O         32.99996        45.64865         1.45571
H         32.09662        45.55829         1.84207
O         25.17091        31.14173        -1.19974
H         25.26151        30.16209        -1.23467
O         50.10823        41.43239        -2.25458
H         50.63222        42.14253        -2.71096
O         30.65008        35.80053        -2.60055
H         30.96754        34.92245        -2.90076
O         39.65805        32.00936        -1.23874
H         39.80973        31.23801        -1.84458
O         52.35930        42.09255         1.67064
H         52.89921        41.47004         2.20400
O         54.32604        29.84415        -2.12314
H         54.48402        28.93778        -2.53581
O         55.67439        46.52217        -1.54329
H         56.43610        45.98745        -1.85230
O         41.56000        17.53675        -0.78961
H         40.75775        16.99020        -0.92362
H         22.10957        26.86809         0.38997
H         22.13555        29.36401         0.30499
H         22.11180        31.36701         1.36560
H         21.98851        33.55249         0.35754
H         22.23008        35.64179         0.45977
H         22.29711        38.04386        -0.08988
H         22.09527        39.73390        -1.12867
H         22.11169        42.09854        -1.58798
H         22.21201        43.91919        -2.72826
H         22.20558        46.39447        -2.71454
H         25.41293        23.44982         0.84394
H         23.33550        24.67449         0.50327
H         25.43098        49.80357        -1.91177
H         23.39924        48.54777        -2.45665
H         27.05905        22.48256         1.26718
H         26.98459        50.74797        -1.31674
H         29.02753        21.34757         2.10254
H         29.00200        51.97682        -0.82328
H         32.80623        19.14375         2.14497
H         30.90495        20.38519         2.99641
H         32.56755        54.22178         0.20808
H         30.59547        52.97148        -0.38718
H         34.59927        18.37971         2.37954
H         34.35132        55.25953         0.18105
H         36.76028        17.27962         2.43425
H         36.48163        56.42604         0.29712
H         40.68739        15.38964         2.76774
H         38.51266        16.50367         2.68391
H         40.22335        58.43362         1.63078
H         38.12166        57.27943         1.12203
H         43.11383        15.31977         2.08097
H         42.73411        58.41790         1.93714
H         44.96752        16.23621         0.68784
H         44.87401        57.25077         1.81629
H         48.20535        18.08269        -1.72070
H         46.31949        16.96886        -0.62137
H         48.70814        55.07946         0.57076
H         46.64218        56.41507         0.69076
H         49.59333        19.20495        -2.72292
H         50.09239        54.03980         1.50595
H         51.41264        20.56260        -3.75011
H         52.18597        52.81656         1.62623
H         56.12358        22.72657        -2.14317
H         54.05766        21.80059        -3.22175
H         55.89140        50.66209         1.83488
H         53.74406        51.72052         2.00267
H         57.42392        24.16683        -3.06268
H         57.35382        49.50290         2.32573
H         59.53174        25.46863        -2.93799
H         60.90490        27.25719        -1.90991
H         60.98865        29.43005        -0.73797
H         61.00386        31.07912         0.48801
H         60.95042        33.48570         0.90821
H         60.95767        35.35826         0.72522
H         60.98523        37.77785         0.73986
H         60.95936        39.67014         0.91902
H         61.11960        42.04407         0.65980
H         60.81573        43.76194         1.59887
H         60.60163        46.01014         2.58010
H         59.32005        48.12197         2.86141
