         430
 CSIRO Nanostructure Databank - Neutral Graphene Oxide Data Set
C         27.90491        27.36064         0.32529
C         27.87182        28.76748         0.31626
C         26.63835        29.49311         0.27915
C         27.83085        31.62847         0.09531
C         26.62040        30.86095         0.20635
C         27.81123        33.04510         0.06906
C         26.61969        33.81703         0.21534
C         27.86509        35.93506         0.31014
C         26.62903        35.19870         0.24067
C         27.92573        37.41137         0.31512
C         26.76322        38.23840         0.62686
C         27.75721        40.19116        -0.57486
C         26.71951        39.55042         0.32263
C         27.88184        41.69958        -0.39071
C         26.71450        42.45294        -0.38840
C         27.94840        44.54244        -0.33013
C         26.73908        43.85986        -0.31167
C         28.01623        45.98946        -0.18703
C         30.35505        27.28753         0.23365
C         29.11477        26.64951         0.22609
C         30.38082        28.75774         0.58774
C         29.09932        29.50506         0.26479
C         30.35183        31.58877        -0.12625
C         29.07332        30.88476         0.08934
C         30.36122        33.10073        -0.25691
C         29.03429        33.85124        -0.34897
C         30.28850        35.99979         0.61499
C         29.04703        35.23071         0.25361
C         30.37407        37.26446        -0.26998
C         29.07957        38.03213        -0.09506
C         30.40126        40.20191        -0.39958
C         29.09434        39.45689        -0.48998
C         30.38904        41.67512        -0.30461
C         29.14960        42.37050        -0.36469
C         30.41080        44.48961        -0.48721
C         29.17644        43.80233        -0.39741
C         30.38551        45.93422        -0.92240
C         29.17305        46.65460        -0.37522
C         32.83989        24.48526        -0.13112
C         31.64920        25.16316        -0.00808
C         32.84525        27.28895         0.12614
C         31.60720        26.58229         0.12302
C         32.85398        28.73255         0.10328
C         31.64342        29.45465         0.16142
C         32.81505        31.59640        -0.02311
C         31.63817        30.87686         0.09915
C         32.85805        33.03452         0.41762
C         31.57394        33.78341         0.17425
C         32.87411        35.92388         0.41214
C         31.56063        35.17085         0.58129
C         32.82415        37.38771         0.26072
C         31.61811        38.07868         0.07872
C         32.83403        40.21868         0.23910
C         31.63064        39.48665         0.00408
C         32.84514        41.67247         0.10550
C         31.60836        42.37099        -0.16754
C         32.87447        44.51771        -0.27146
C         31.62690        43.80074        -0.31341
C         32.88768        45.95115        -0.42614
C         31.68996        46.65890        -0.69886
C         32.92975        48.74486        -0.77593
C         31.73508        48.04269        -0.89336
C         35.35750        23.13510        -0.86439
C         35.31195        24.44491        -0.33651
C         34.09573        25.15645        -0.10205
C         35.31269        27.32353         0.05029
C         34.09316        26.58984         0.05947
C         35.32522        28.74558        -0.07754
C         34.09087        29.42435        -0.07969
C         35.38051        31.64469        -0.24702
C         34.06661        30.87907        -0.26106
C         35.36301        33.11416        -0.06618
C         34.09506        33.81631        -0.00910
C         35.30427        35.97723        -0.38970
C         34.07590        35.18626        -0.00961
C         35.27963        37.37819         0.18778
C         34.06691        38.08485         0.33256
C         35.27087        40.23028         0.81443
C         34.03600        39.51301         0.46007
C         35.28203        41.73407         0.63419
C         34.03966        42.39764         0.19679
C         35.32910        44.52605         0.04135
C         34.08246        43.81861        -0.03016
C         35.34823        45.95087        -0.07221
C         34.12053        46.66407        -0.31511
C         35.38055        48.81343        -0.34373
C         34.13557        48.08028        -0.47839
C         35.43086        50.22002        -0.47705
C         37.81344        23.15310        -0.93287
C         36.56441        22.49487        -1.09738
C         37.85397        24.47259        -0.45827
C         36.59197        25.08158        -0.02212
C         37.84759        27.34959         0.03916
C         36.58061        26.62585         0.20714
C         37.82859        28.76594         0.04766
C         36.58433        29.47710        -0.03387
C         37.82723        31.59865         0.23123
C         36.61332        30.88711         0.01137
C         37.78291        33.07627         0.55588
C         36.55305        33.80483         0.06859
C         37.79344        35.92036         0.01644
C         36.58793        35.23839        -0.04120
C         37.82702        37.39623        -0.05585
C         36.51407        38.14507         0.10002
C         37.82436        40.23652         0.60316
C         36.57735        39.43459         0.89467
C         37.81306        41.70834         0.96164
C         36.56446        42.43199         0.50091
C         37.81054        44.53735         0.26971
C         36.56560        43.80665         0.25070
C         37.80795        45.95588         0.21724
C         36.56796        46.67234         0.05632
C         37.79282        48.84121         0.11561
C         36.58465        48.11010        -0.05409
C         37.81695        50.24323         0.00466
C         36.61406        50.91783        -0.31655
C         40.33504        20.33087        -1.17808
C         39.14726        20.97815        -1.25095
C         40.37831        23.20159        -1.00606
C         39.07642        22.45172        -1.27297
C         40.32473        24.57612        -0.48135
C         39.08606        25.21560        -0.30554
C         40.29859        27.35788         0.08498
C         39.06550        26.63642        -0.03150
C         40.27611        28.76000         0.26337
C         39.06174        29.48030         0.18314
C         40.30595        31.64744         0.38771
C         39.04501        30.91568         0.30502
C         40.29962        33.09462         0.33303
C         39.07004        33.81123         0.27890
C         40.27923        35.95349         0.23449
C         39.05269        35.21463         0.18765
C         40.27857        37.39373         0.28818
C         39.06028        38.11344         0.25865
C         40.28952        40.25823         0.39624
C         39.02852        39.54790         0.40391
C         40.29427        41.69000         0.44481
C         39.07353        42.41418         0.54987
C         40.26899        44.55612         0.32211
C         39.05217        43.83265         0.39190
C         40.26389        45.96761         0.26352
C         39.03637        46.66132         0.29069
C         40.30807        48.83166         0.18685
C         39.03386        48.13211         0.59123
C         40.30384        50.26323         0.14898
C         39.07700        50.97686         0.16826
C         40.29837        53.08273         0.38136
C         39.10292        52.38567         0.29277
C         42.79905        20.30385        -0.83473
C         41.59076        21.02657        -0.97538
C         42.81345        23.10226        -0.47310
C         41.61035        22.42424        -0.80258
C         42.80386        24.52984        -0.25754
C         41.56103        25.24911        -0.21667
C         42.79232        27.33866         0.22348
C         41.55082        26.64125         0.05423
C         42.79777        28.76633         0.38850
C         41.51556        29.47457         0.73675
C         42.75946        31.65231         0.35486
C         41.51385        30.95416         0.43824
C         42.76626        33.08299         0.33989
C         41.52299        33.80796         0.34354
C         42.73215        35.97740         0.36415
C         41.51509        35.24957         0.32108
C         42.74440        37.38916         0.30399
C         41.51453        38.10743         0.32178
C         42.75394        40.25596         0.29604
C         41.51527        39.54595         0.33371
C         42.75237        41.68289         0.25686
C         41.53319        42.38228         0.35032
C         42.77742        44.56153         0.08437
C         41.56264        43.85722         0.62955
C         42.74207        45.97395        -0.01251
C         41.51976        46.69219         0.14747
C         42.75311        48.84672        -0.35128
C         41.49759        48.11322         0.06387
C         42.78208        50.30071         0.03501
C         41.55138        50.98426         0.15511
C         42.78150        53.10300         0.32570
C         41.53925        52.40608         0.29762
C         43.98562        20.96176        -0.56562
C         45.28031        23.07671        -0.18998
C         44.02753        22.36696        -0.38967
C         45.28005        24.48804        -0.03174
C         44.02451        25.21613        -0.02625
C         45.27392        27.32867         0.59112
C         44.00912        26.61838         0.18508
C         45.25301        28.80077         0.27427
C         44.00615        29.48982         0.33011
C         45.21484        31.64745         0.17245
C         43.99214        30.93896         0.30107
C         45.21123        33.08002         0.16798
C         43.99626        33.77798         0.31425
C         45.17159        35.94328        -0.13078
C         44.03455        35.25739         0.61448
C         45.22705        37.42007         0.17262
C         43.99580        38.11997         0.26472
C         45.23661        40.25025         0.27636
C         44.00183        39.54341         0.29257
C         45.25205        41.69668         0.12785
C         43.98888        42.40984         0.08067
C         45.20812        44.51204        -0.49513
C         43.96187        43.80899        -0.09831
C         45.24710        45.99560        -0.33203
C         43.98771        46.72681        -0.06644
C         45.26881        48.82232         0.35480
C         44.00579        48.09039        -0.00966
C         45.26604        50.28933        -0.00727
C         44.00810        51.00269         0.06558
C         43.97235        52.42481         0.21723
C         47.71891        23.08312        -0.17150
C         46.51687        22.39150        -0.22398
C         47.74243        24.47982        -0.05265
C         46.52535        25.19345         0.04641
C         47.73219        27.35569         0.10244
C         46.53783        26.62865         0.17279
C         47.71815        28.80083         0.14713
C         46.46489        29.50486         0.16753
C         47.68042        31.64883         0.00978
C         46.45755        30.93977         0.10040
C         47.68060        33.08149        -0.03437
C         46.46027        33.79390         0.03934
C         47.68541        35.91010         0.01528
C         46.48219        35.21781         0.03556
C         47.73385        37.36150         0.40331
C         46.43950        38.10484         0.19234
C         47.72140        40.21537         0.17249
C         46.46626        39.53103         0.24513
C         47.75340        41.70267         0.41022
C         46.45693        42.37269         0.03364
C         47.75902        44.52594        -0.25214
C         46.51235        43.73147        -0.60682
C         47.76345        45.95607        -0.19650
C         46.53559        46.70499        -0.17797
C         47.77408        48.81490        -0.00624
C         46.53899        48.08302        -0.01063
C         47.71779        50.21835        -0.08839
C         46.49567        50.91992        -0.15159
C         50.17860        24.59679         0.67784
C         49.07079        25.18905        -0.16609
C         50.19328        27.38119         0.16151
C         48.99958        26.67957         0.04378
C         50.18987        28.82664         0.10894
C         48.93051        29.51856         0.08659
C         50.14916        31.65726        -0.10698
C         48.92467        30.94712        -0.00356
C         50.14564        33.08232        -0.24791
C         48.91079        33.79055        -0.17643
C         50.13041        35.92867        -0.39790
C         48.91677        35.21320        -0.15861
C         50.11564        37.38605        -0.43326
C         48.94535        38.08916        -0.11362
C         50.15627        40.23618        -0.27943
C         48.92674        39.51735        -0.06585
C         50.16852        41.65253        -0.33748
C         48.98414        42.38967        -0.14878
C         50.22404        44.56941        -0.60291
C         48.96371        43.79869        -0.27130
C         50.25032        45.86769         0.20492
C         48.98702        46.66994        -0.02580
C         50.29050        48.73844         0.11476
C         49.01586        48.07101         0.02476
C         51.30916        25.29910         0.90104
C         52.63836        27.38709         0.51034
C         51.43796        26.68870         0.47360
C         52.69467        28.78932        -0.06299
C         51.39099        29.53378         0.05532
C         52.61401        31.68574        -0.05774
C         51.39334        30.95474        -0.05261
C         52.61208        33.08970        -0.30103
C         51.36013        33.79480        -0.43947
C         52.54692        35.90534        -1.05990
C         51.32403        35.21174        -0.61780
C         52.52992        37.42623        -1.29955
C         51.32422        38.10659        -0.68939
C         52.63399        40.18512        -0.49112
C         51.35653        39.49500        -0.53802
C         52.68225        41.56215        -0.45136
C         51.43886        42.33857        -0.81905
C         52.68949        44.44001        -0.21416
C         51.49752        43.78608        -0.41904
C         52.73030        45.89989        -0.07604
C         51.54159        46.63173         0.01180
C         51.48255        48.05635         0.08635
C         55.02710        27.52372         1.05646
C         53.88345        26.78990         0.91917
C         55.03868        28.95895         0.85812
C         53.87140        29.60819         0.41688
C         55.03390        31.77738         0.50972
C         53.85363        31.01714         0.26491
C         55.03000        33.20764         0.22763
C         53.83426        33.80226        -0.27151
C         55.09894        35.95946        -0.64978
C         53.87967        35.16498        -0.81790
C         55.11413        37.34729        -1.28043
C         53.84053        38.09920        -0.91552
C         55.11378        40.03119         0.08096
C         53.85801        39.38882        -0.47702
C         55.13906        41.54483        -0.06529
C         53.93254        42.26593        -0.24719
C         55.16803        44.37549        -0.03565
C         53.93890        43.68661        -0.18088
C         55.17825        45.81804        -0.00762
C         54.02173        46.53825        -0.03911
C         56.19397        29.72739         1.14074
C         56.19414        31.10023         0.95258
C         56.16202        34.02339         0.39537
C         56.17118        35.38339        -0.00206
C         56.36202        38.12532        -0.95874
C         56.36337        39.34638        -0.41812
C         56.33762        42.25068         0.11660
C         56.36342        43.64252         0.09416
O         53.22988        35.23075        -2.15341
O         45.06823        45.36755        -1.69020
O         35.11784        41.09176         2.00140
O         36.62954        25.67284         1.31675
O         37.14468        38.07277        -1.22140
O         39.81885        23.07498        -2.37022
O         34.74460        31.28924        -1.52804
O         30.48521        32.23269        -1.45966
O         29.88619        39.68422        -1.71961
O         32.41497        35.47897         1.76919
O         41.44074        29.40413         2.22506
H         41.27682        28.46520         2.45970
O         35.27732        36.14293        -1.84510
H         35.99015        36.79441        -2.06180
O         52.38620        37.59784        -2.74597
H         51.61355        37.06985        -3.03752
O         32.99838        32.89354         1.88652
H         32.95655        33.81203         2.25707
O         42.72489        48.86260        -1.83246
H         42.74399        47.92875        -2.13460
O         55.13357        37.16394        -2.71675
H         54.23012        36.87650        -2.99581
O         30.20584        45.90902        -2.38538
H         29.38148        45.40903        -2.56717
O         49.48404        24.98742        -1.56519
H         50.29957        25.51513        -1.70543
O         55.06528        39.80012         1.53140
H         55.09388        38.83122         1.67763
O         41.70166        43.95847         2.10701
H         40.90450        43.54127         2.50072
O         30.43663        28.77844         2.07166
H         29.68474        28.23563         2.39295
O         44.83520        35.83213        -1.54675
H         45.53651        36.27909        -2.06509
O         45.26698        48.82036         1.83918
H         46.05940        49.32178         2.12829
O         44.32388        35.38733         2.03691
H         43.61989        34.92270         2.53559
O         46.69277        43.42843        -2.03657
H         46.20512        44.13493        -2.52536
O         50.14436        44.86664        -2.03331
H         49.20424        45.04329        -2.25473
O         37.64913        33.12305         2.03113
H         38.43270        32.66994         2.41056
O         27.26510        39.99945        -1.93327
H         28.05462        40.03996        -2.51980
O         52.91704        28.60857        -1.51451
H         53.80522        28.20598        -1.62099
O         45.28610        27.26229         2.08159
H         44.53132        27.80642         2.39501
O         50.22576        45.45200         1.60780
H         50.24857        46.26300         2.15757
O         30.51305        36.87573        -1.65026
H         30.39547        37.69263        -2.18793
O         37.78010        41.77020         2.45214
H         36.82843        41.68960         2.70737
O         36.68141        38.95619         2.27003
H         36.51592        39.72643         2.85808
O         28.79761        34.10006        -1.77729
H         29.19217        33.33413        -2.25884
O         47.85607        41.86612         1.88379
H         48.75845        41.58497         2.14656
O         47.91029        37.33321         1.87369
H         47.81071        38.25535         2.19407
O         30.09038        36.47586         1.97030
H         30.95796        36.39352         2.43423
O         51.38404        42.33898        -2.28900
H         50.89127        43.15279        -2.55713
O         38.99173        48.21358         2.07034
H         39.01888        49.16595         2.30532
H         26.95638        26.80488         0.32946
H         25.69388        28.93131         0.32364
H         25.65156        31.37782         0.19895
H         25.65283        33.30520         0.32626
H         25.67569        35.74170         0.31154
H         25.93751        37.77967         1.19140
H         25.83975        40.14592         0.60744
H         25.74174        41.94448        -0.43678
H         25.79438        44.41900        -0.25318
H         27.10184        46.52335         0.11334
H         29.05562        25.55709         0.12040
H         29.20440        47.74643        -0.24884
H         32.81633        23.39105        -0.22595
H         30.71433        24.58706        -0.01405
H         32.91504        49.83063        -0.93443
H         30.82061        48.59030        -1.15848
H         34.42482        22.60420        -1.09877
H         34.52120        50.78704        -0.71340
H         36.54697        21.47252        -1.49786
H         36.60914        52.00844        -0.44458
H         40.35935        19.23087        -1.19186
H         38.21493        20.39652        -1.28318
H         40.28884        54.17659         0.49220
H         38.15979        52.94710         0.33940
H         42.79032        19.21107        -0.95508
H         42.77694        54.19724         0.43561
H         44.90577        20.36830        -0.48655
H         44.91413        52.98945         0.25577
H         48.66379        22.52900        -0.25860
H         46.54449        21.30037        -0.33907
H         48.64596        50.79991        -0.16802
H         46.54010        52.00394        -0.32951
H         50.10276        23.55160         1.01271
H         50.31577        49.83501         0.16988
H         52.14419        24.82841         1.43998
H         52.41505        48.63847         0.09301
H         55.95724        27.03637         1.38302
H         53.91073        25.71619         1.15399
H         56.14828        46.33266         0.05653
H         54.07642        47.63472         0.00292
H         57.10316        29.22066         1.49496
H         57.11596        31.66311         1.15316
H         57.08354        33.60694         0.82331
H         57.08996        35.96708         0.15568
H         57.31096        37.68031        -1.29606
H         57.32771        39.85038        -0.25446
H         57.27933        41.71085         0.28336
H         57.31599        44.17760         0.21690
