         294
 CSIRO Nanostructure Databank - Neutral Graphene Oxide Data Set
C          1.19128         1.89063         0.10327
C          1.18281         3.33148         0.25970
C          2.34267         1.19337         0.11136
C          2.30025         4.03318         0.58829
C          1.11205         6.33761         0.38150
C          1.11740         7.66696         0.17149
C          2.34397         5.50890         0.35213
C          2.37864         8.41704        -0.21259
C          1.16783        10.64800         0.01722
C          1.16096        12.03669         0.14230
C          2.36922         9.92638         0.01403
C          2.35894        12.75043         0.28352
C          1.09442        15.04836         0.38973
C          1.11164        16.33692         0.01303
C          2.34185        14.23008         0.50807
C          2.34114        16.94189        -0.63603
C          2.40048        18.45850        -0.66940
C          3.67348         1.79995         0.47983
C          3.58484         3.30520         0.84074
C          4.72883         1.59883        -0.61892
C          4.86934         4.09152         0.92560
C          3.63230         6.25753         0.45744
C          3.56488         7.75649         0.49203
C          4.85160         5.62361         1.12655
C          4.86916         8.48203         0.50669
C          3.59286        10.63274         0.10980
C          3.58492        12.04068         0.23726
C          4.88612         9.86558        -0.13305
C          4.86820        12.77263         0.47414
C          3.63994        14.97723         0.40508
C          3.62497        16.47413         0.10495
C          4.89982        14.23634         0.25592
C          4.87077        16.96586        -0.65881
C          3.57208        19.13424        -0.69252
C          4.88357        18.48254        -0.68803
C          6.06670         2.18222        -0.20715
C          6.11736         3.45422         0.42045
C          7.23989         1.51425        -0.55606
C          7.35104         4.16798         0.49275
C          6.13734         6.31981         0.70959
C          6.11728         7.68156         0.45669
C          7.35741         5.55689         0.71581
C          7.34495         8.38739         0.02226
C          6.18888        10.57669         0.18257
C          6.16920        12.01833         0.53774
C          7.34938         9.88244         0.02642
C          7.49695        12.78578         0.58151
C          6.10448        14.95395         0.12532
C          6.12558        16.33174        -0.13567
C          7.37824        14.19471         0.00688
C          7.36408        17.17853        -0.05074
C          6.05730        19.15200        -0.82628
C          7.35093        18.37856        -1.00341
C          8.51990         2.11397        -0.39748
C          8.58361         3.50658         0.05211
C          9.70628         1.40999        -0.60174
C          9.77766         4.17524        -0.01328
C          8.64632         6.30597         0.97753
C          8.64311         7.65833         0.26114
C          9.98002         5.46397         0.73499
C          9.85493         8.48536         0.57706
C          8.65814        10.58663        -0.29117
C          8.64991        12.06191        -0.05894
C          9.86412         9.95487         0.38780
C          9.94228        12.75437        -0.05893
C          8.64720        14.95035        -0.20520
C          8.66260        16.42214        -0.17574
C          9.96344        14.23927        -0.06961
C          9.83216        17.12455        -0.18281
C          8.64342        19.16508        -0.84848
C          9.81876        18.56332        -0.47070
C         10.97877         2.07911        -0.67565
C         10.90362         3.58670        -0.85278
C         12.15257         1.37585        -0.71059
C         12.27158         4.28016        -0.71515
C         11.01761         6.34731         0.01005
C         11.15023         7.71191         0.74031
C         12.35993         5.65513        -0.13361
C         12.36185         8.46930         0.16588
C         11.15727        10.68242         0.35954
C         11.18062        12.04079         0.32319
C         12.43787         9.93468         0.63368
C         12.43832        12.78682         0.45789
C         11.10639        14.99471         0.52756
C         11.08120        16.47271         0.29771
C         12.46570        14.30041         0.69753
C         12.42375        17.17965         0.21833
C         11.10543        19.24942        -0.46186
C         12.29860        18.62325        -0.22027
C         13.49692         1.95622        -1.09545
C         13.53870         3.49831        -0.87961
C         14.68235         1.35003        -0.40498
C         14.82642         4.08573        -0.42023
C         13.55402         6.28006         0.03494
C         13.66065         7.72325         0.52037
C         14.85083         5.51346         0.09218
C         14.89487         8.52587         0.08597
C         13.61869        10.65620        -0.03522
C         13.62178        12.11327         0.35367
C         14.92113         9.88724         0.10786
C         14.90024        12.90732         0.21112
C         13.49100        14.94345        -0.23160
C         13.39860        16.40146        -0.71366
C         14.51342        14.14434        -0.59189
C         14.85937        17.18966        -0.80060
C         13.58518        19.29860        -0.17723
C         14.75743        18.60425        -0.22122
C         16.03553         1.87501        -0.80395
C         15.98251         3.38560        -0.44018
C         17.22339         1.23652        -0.09726
C         17.28830         4.07261        -0.09479
C         16.01349         6.28983        -0.52811
C         16.09911         7.77438        -0.35570
C         17.28830         5.49731        -0.66497
C         17.47229         8.42630        -0.14656
C         16.23335        10.67841         0.19908
C         16.10381        12.11565        -0.33261
C         17.45486         9.93415        -0.33432
C         17.37235        12.85708        -0.69452
C         16.39645        15.11455        -0.77639
C         16.06946        16.44138        -0.12215
C         17.49248        14.34304        -0.47626
C         17.40621        17.17467        -0.32615
C         16.00551        19.28716         0.28958
C         17.33006        18.66075        -0.07855
C         18.41918         1.87696        -0.00284
C         18.51834         3.27462        -0.58025
C         19.64555         1.25896         0.46819
C         19.76778         4.04500        -0.20798
C         18.58221         6.22653        -0.83096
C         18.52522         7.75816        -1.05521
C         19.76617         5.55462        -0.12176
C         19.90716         8.39829        -0.96731
C         18.59294        10.60112        -0.65770
C         18.65560        12.09015        -0.63602
C         19.95422         9.94254        -0.86607
C         19.83754        12.74517         0.05621
C         18.63416        14.94538         0.19754
C         18.55006        16.46952         0.49119
C         19.71555        14.15109         0.58039
C         19.85935        17.23708         0.25518
C         18.46698        19.38228        -0.13818
C         19.80055        18.73855        -0.16231
C         20.83067         1.92598         0.45921
C         20.92086         3.35095         0.15193
C         22.15330         4.05432         0.24218
C         21.11708         6.18500        -0.34902
C         21.16342         7.63481        -0.65675
C         22.24253         5.42558        -0.08030
C         22.34604         8.45164        -0.25679
C         20.82979        10.33230         0.34848
C         20.86577        11.83025         0.62774
C         22.20581         9.71290         0.17560
C         21.74598        12.31000         1.55082
C         20.79724        14.56024         1.45237
C         21.01189        16.91529         1.09571
C         21.74061        13.68786         1.93872
C         22.10155        17.73203         1.24082
C         20.95835        19.58273         0.15096
C         22.08851        19.06310         0.70616
O          4.24352         3.49713         2.14356
O         12.99513         4.22759        -2.01102
O         20.10162        17.65738        -1.09840
O          4.03684         8.37326         1.71154
O         15.75492         7.15728        -1.65369
O         19.72076        12.69180        -1.41241
O         15.40836        14.56723        -1.58152
O         10.30674        13.55739        -1.30730
O          9.60179         9.38647         1.72042
O         15.16460        17.36710        -2.14806
O         16.45214        12.32759        -1.71937
O         20.73827         7.90207        -2.06386
O          8.09738         7.72093        -1.06455
O          3.23377         5.74801        -0.84864
O          7.89244        14.37654        -1.34705
O          5.43094        12.29326         1.78433
O         10.78305        15.87638         1.63232
O         20.86981        15.84962         2.00393
O          3.05170        14.64304         1.73698
O         17.96391         5.55716        -1.96413
O         11.32933         7.50675         2.16090
H         10.44293         7.63407         2.58393
O         19.53636         5.82509         1.31401
H         18.80188         5.22047         1.61016
O          8.89625        10.36046        -1.71477
H          8.24333        10.88331        -2.22647
O         15.14303         5.38690         1.52665
H         14.81200         6.20613         1.98417
O         12.85973        16.43398        -2.02523
H         13.62248        16.73597        -2.60096
O         18.57517         3.07334        -2.00444
H         18.40546         3.93457        -2.45584
O         20.60463        10.44359        -2.02828
H         20.06767        10.21548        -2.81379
O          4.94738         9.65809        -1.57608
H          4.10686         9.20582        -1.85510
O         15.90739        19.20668         1.73738
H         15.73816        18.26010         1.95396
O         12.19348         8.42476        -1.26108
H         12.72968         9.14264        -1.68727
O         13.83850         7.63741         1.96343
H         13.63239         8.53719         2.33573
O         10.50316         5.03540         2.01414
H         11.10432         5.74955         2.34692
O         16.26069         1.76025        -2.21304
H         15.37749         1.76272        -2.66086
O          2.58250         8.23530        -1.64772
H          2.71638         7.26217        -1.78959
O         13.60383         1.74851        -2.53197
H         13.07756         2.46808        -2.95565
O         10.47216         6.51040        -1.31358
H         11.01016         7.20374        -1.77329
O         17.81342         8.15606         1.23247
H         17.67066         8.97756         1.75392
O          4.73014         5.90660         2.53516
H          4.37116         5.09885         2.97247
O         15.32481        13.34550         1.53810
H         14.54704        13.82761         1.94611
O          3.65953        17.15545         1.37450
H          3.25335        16.55058         2.03833
O         17.70602        16.97265        -1.71996
H         16.85985        17.18701        -2.21822
O         18.08834         8.02650        -2.39364
H         18.72236         7.59567        -3.00593
O         13.39334        10.70353        -1.48542
H         14.16434        11.14404        -1.90684
O         12.91834        14.48678         2.06410
H         12.96232        15.47460         2.18993
O          4.27811         2.28045        -1.79472
H          4.98717         2.24735        -2.46888
O          8.65074         6.66178         2.38619
H          8.78111         5.82714         2.89083
O         13.01250        17.17645         1.54639
H         12.40884        17.67184         2.13959
O         12.66456         9.98168         2.06715
H         11.81543         9.73553         2.50123
O         15.71710        16.25396         1.26042
H         16.54869        16.13383         1.78554
O          7.87363        12.96529         1.98264
H          7.06828        12.76906         2.52066
O          4.85377        16.51262        -2.05097
H          5.70722        16.82897        -2.44983
O         18.24318        16.62017         1.90345
H         19.02000        16.28197         2.41031
O         10.47409         3.80403        -2.22635
H         10.38174         4.78231        -2.33146
O         17.44639         4.11965         1.34664
H         16.61989         4.52706         1.72480
O          4.13395         1.05014         1.62344
H          4.39571         1.70405         2.31519
O         16.47924        10.81080         1.63979
H         16.01301        11.62864         1.95217
O          7.32280        17.82425        -2.36182
H          7.61895        18.52065        -2.98501
O          2.26922        16.44767        -1.99179
H          3.13201        16.63585        -2.43566
O          7.34237        17.74959         1.29514
H          7.41613        17.01916         1.94470
O         20.19689         9.70650         1.49763
H         20.74460         9.88904         2.28945
H          0.23871         1.39232        -0.12630
H          0.25137         3.86327         0.01693
H          2.33816         0.10935        -0.07537
H          0.16615         5.83935         0.64187
H          0.16284         8.20970         0.23058
H          0.20699        10.12764        -0.09160
H          0.20100        12.57040         0.14473
H          0.16282        14.60321         0.77385
H          0.17868        16.92222         0.02218
H          1.45235        19.01670        -0.72176
H          4.84681         0.49980        -0.83478
H          3.56231        20.23475        -0.74646
H          7.17457         0.50624        -0.99347
H          6.06628        20.25184        -0.89579
H          9.67376         0.31825        -0.73665
H          8.64847        20.22272        -1.15752
H         12.09642         0.27562        -0.68379
H         11.11124        20.31722        -0.73199
H         14.54264         1.07361         0.65458
H         13.60111        20.37963         0.04359
H         17.12954         0.19147         0.23798
H         16.00641        20.37497         0.02485
H         19.61033         0.20559         0.78509
H         18.44393        20.47313         0.01550
H         21.75301         1.41362         0.77053
H         23.06826         3.50337         0.50318
H         23.23880         5.88941        -0.12390
H         23.34854         8.00993        -0.36673
H         23.09812        10.30822         0.42254
H         22.48979        11.64304         2.01198
H         22.49105        14.05278         2.65043
H         22.92396        17.42506         1.89996
H         20.88654        20.65999        -0.05839
H         22.95817        19.70856         0.89284
