         324
 CSIRO Nanostructure Databank - Neutral Graphene Oxide Data Set
C          1.16717         3.33391         0.51237
C          0.07020         4.10863         0.77744
C          1.13131         6.16085        -0.07043
C          0.08872         5.52532         0.56718
C          1.10896         7.58817        -0.35735
C         -0.00783         8.36884        -0.10515
C          1.12378        10.51511        -0.57880
C          0.01706         9.78374        -0.18801
C          1.15590        11.95399        -0.27237
C          0.42988        12.54051         0.79266
C          1.54357        14.70435         0.46314
C          0.55222        13.89795         1.07446
C          1.60329        16.15602         0.62254
C          0.62214        16.84805         1.42953
C          1.38654        19.05316         0.62930
C          0.56726        18.20139         1.50113
C          1.52050        20.50703         0.91764
C          0.47149        21.15665         1.60274
C          1.54729        23.31607         1.32834
C          0.48228        22.52371         1.80865
C          1.54265        24.75350         1.48358
C          0.50329        25.43743         2.19177
C          1.45444        27.63107         1.70862
C          0.48805        26.81374         2.33865
C          1.50093        29.03585         1.87102
C          3.58595         3.30905         0.12363
C          2.37327         3.94385         0.02114
C          3.57573         6.03728        -0.74688
C          2.23725         5.29144        -0.66610
C          3.58906         7.51454        -0.98096
C          2.26828         8.24903        -1.00596
C          3.62718        10.42986        -1.36378
C          2.27821         9.77838        -1.17371
C          3.73178        11.71026        -1.81070
C          2.00995        12.82386        -0.96975
C          3.67797        14.72270        -0.87219
C          2.38975        14.08701        -0.49804
C          3.76433        16.20714        -0.58542
C          2.57737        16.89015        -0.04289
C          3.71142        19.13759        -0.50421
C          2.48798        18.35658        -0.16382
C          3.72910        20.58479        -0.25390
C          2.61732        21.24754         0.43770
C          3.73973        23.46311         0.22167
C          2.63352        22.67470         0.64895
C          3.71876        24.88057         0.31470
C          2.57704        25.50990         0.89198
C          3.67627        27.80558         0.42042
C          2.45201        26.97263         0.85963
C          3.75493        29.19665         0.89465
C          2.59755        29.78929         1.47540
C          6.10240         3.38342         0.19920
C          4.83459         4.03191        -0.00229
C          6.01359         6.20950         0.15788
C          4.79380         5.40418        -0.22229
C          5.96255         7.67418        -0.21552
C          4.83421         8.27801        -0.65686
C          6.20417        10.40688        -1.20505
C          4.88403         9.65960        -1.20346
C          6.25225        11.87210        -1.51462
C          4.94544        12.55993        -1.83809
C          6.10042        14.85088        -1.69964
C          4.79708        14.07905        -1.69772
C          6.10741        16.31595        -1.39313
C          4.75719        17.01715        -1.39832
C          6.04066        19.19100        -1.37954
C          4.82271        18.46822        -0.95700
C          6.02760        20.71174        -1.23350
C          4.84960        21.32385        -0.59296
C          6.12309        23.55177        -0.72283
C          4.94844        22.75296        -0.23307
C          5.98995        25.04390        -0.78077
C          4.85178        25.68745        -0.10071
C          6.12972        27.83043        -0.05558
C          4.90421        27.07556         0.06363
C          6.14567        29.22790         0.30569
C          4.96570        29.87392         0.77748
C          8.55940         3.42572         0.07423
C          7.30357         4.05962        -0.01101
C          8.51916         6.27541        -0.18755
C          7.24516         5.51168        -0.45705
C          8.48449         7.66737        -0.11013
C          7.21629         8.45590         0.12102
C          8.47139        10.61358        -0.15539
C          7.33074         9.85798        -0.44369
C          8.50950        12.08218        -0.44971
C          7.42558        12.66578        -1.09030
C          8.65761        14.87438        -1.34109
C          7.40962        14.08203        -1.57780
C          8.56397        16.34276        -1.09938
C          7.28397        17.04603        -1.33439
C          8.56007        19.19784        -1.45049
C          7.32508        18.48061        -1.35290
C          8.51789        20.68094        -1.63399
C          7.30020        21.41712        -1.27557
C          8.51795        23.61843        -1.21955
C          7.21617        22.89894        -1.56743
C          8.52613        25.11681        -1.33721
C          7.26372        25.85247        -0.98456
C          8.60691        27.87644        -0.26502
C          7.34255        27.21834        -0.43505
C          8.60570        29.30558         0.02837
C          7.35690        29.93585         0.23357
C         11.01732         3.46996         0.10627
C          9.77992         4.13851        -0.01610
C         10.97147         6.32791        -0.02767
C          9.75855         5.58921        -0.10911
C         10.93352         7.74054        -0.02507
C          9.68841         8.40858        -0.01891
C         10.83553        10.39398         0.73727
C          9.63860         9.83333         0.20960
C         10.83212        12.47385         0.53795
C          9.71129        12.91376        -0.21142
C         11.04156        14.96392        -0.58168
C          9.83331        14.22055        -0.72948
C         11.12505        16.37326        -0.93931
C          9.84784        17.12146        -1.03799
C         11.08675        19.24860        -1.58858
C          9.79878        18.54932        -1.38483
C         11.12671        20.71224        -1.41878
C          9.84452        21.43847        -1.58172
C         11.08598        23.60099        -1.22547
C          9.81055        22.88170        -1.18592
C         11.11753        25.05202        -1.27209
C          9.82654        25.83561        -1.22522
C         11.03586        27.57045         0.02185
C          9.81652        27.14657        -0.52067
C         11.04179        29.69145         0.31715
C          9.76325        30.15927        -0.02233
C         13.46134         3.49971         0.45657
C         12.23980         4.16989         0.19086
C         13.41373         6.31751         0.32318
C         12.23217         5.61521         0.12021
C         13.35933         7.78274         0.51045
C         12.21513         8.54260        -0.10814
C         13.32332        10.73512         0.65809
C         12.12172         9.92992         0.50758
C         13.34161        12.17895         0.62316
C         12.14141        12.98138         0.38024
C         13.42560        15.08299         0.11821
C         12.20326        14.31076        -0.10949
C         13.53847        16.43780        -0.43736
C         12.32893        17.06411        -0.89956
C         13.59042        19.26419        -0.92808
C         12.39144        18.49071        -1.30068
C         13.57304        20.67062        -0.93997
C         12.30926        21.36919        -1.13160
C         13.57255        23.54845        -0.55976
C         12.27589        22.82979        -0.86360
C         13.62643        25.01077        -0.60420
C         12.41904        25.76870        -0.91548
C         13.50853        27.83586        -0.01535
C         12.32899        27.11252        -0.32408
C         13.50596        29.28935         0.16116
C         12.34518        30.13298         0.04722
C         15.87559         3.52352         0.99169
C         14.66017         4.19782         0.68385
C         15.82409         6.38071         0.78068
C         14.64931         5.64820         0.60123
C         15.88036         7.82590         0.67062
C         14.60458         8.56601         0.78000
C         15.79883        10.71682         0.54804
C         14.57577        10.04279         0.61887
C         15.81641        12.13376         0.55035
C         14.60405        12.84461         0.58329
C         15.96117        15.01548         0.31521
C         14.67300        14.32747         0.54363
C         15.97889        16.39276        -0.02801
C         14.75769        17.11249        -0.37623
C         16.00688        19.24328        -0.54132
C         14.79481        18.54852        -0.61678
C         16.04693        20.67702        -0.60467
C         14.80688        21.39690        -0.71758
C         16.04465        23.53181        -0.41394
C         14.84069        22.80697        -0.60100
C         16.03472        24.95660        -0.21566
C         14.79370        25.69546        -0.29006
C         15.98736        27.80139         0.13486
C         14.76533        27.13161        -0.08949
C         15.98150        29.23306         0.30287
C         14.75269        29.93411         0.25798
C         18.32410         3.56349         1.36116
C         17.07304         4.21556         1.21146
C         18.37333         6.40839         0.88549
C         17.05978         5.68609         1.14712
C         18.28214         7.65387         0.00764
C         17.05195         8.48120         0.36855
C         18.34745        10.67833         0.08843
C         17.03950         9.95337         0.21509
C         18.40133        12.08482         0.61348
C         17.10894        12.84716         0.74516
C         18.40911        14.98944         0.50345
C         17.17062        14.31997         0.54155
C         18.44816        16.36694         0.14789
C         17.23529        17.03886        -0.14841
C         18.56422        19.19234        -0.43226
C         17.25971        18.45830        -0.53938
C         18.51060        20.65512        -0.16224
C         17.26308        21.39446        -0.45527
C         18.51194        23.53894        -0.19517
C         17.29351        22.81827        -0.37675
C         18.49260        24.93860         0.03407
C         17.24105        25.65382         0.01061
C         18.43848        27.78270         0.40439
C         17.22487        27.08031         0.18452
C         18.42280        29.21193         0.55954
C         17.19816        29.91177         0.50002
C         19.53553         4.24035         1.19727
C         20.81507         6.27964         0.53720
C         19.59700         5.59907         0.84442
C         20.83985         7.60177         0.18224
C         19.62691         8.39152        -0.07651
C         20.87411        10.68604         0.22742
C         19.65912         9.93404        -0.05425
C         20.85603        12.06102         0.45582
C         19.68162        12.81015         0.55362
C         20.92396        15.00078         0.65846
C         19.65805        14.26715         0.99223
C         20.93869        16.29599         0.29969
C         19.72736        17.07405         0.10260
C         21.02494        19.20874        -0.15500
C         19.79342        18.44886        -0.08269
C         21.04572        20.56327        -0.25050
C         19.82420        21.37479        -0.06301
C         20.98389        23.57471         0.25653
C         19.84729        22.85245        -0.41091
C         20.91271        24.89659         0.53345
C         19.70027        25.65226         0.32735
C         20.87159        27.81868         0.70613
C         19.68458        27.07547         0.48830
C         20.84315        29.20761         0.84611
C         19.64175        29.90444         0.77795
O         18.06141        18.78795        -1.74911
O          9.02822        23.16699         0.07643
O         10.98979        28.49227         1.06817
O          8.33693        14.39217        -2.68036
O          4.33513        15.25089         0.35810
O         13.84860        15.00401         1.53927
O          9.18546        21.19102        -2.87319
O         12.68128        23.10808         0.55737
O          2.56411        27.55043        -0.48500
O          5.87378        12.18552        -2.89334
O         17.52730        10.48094        -1.10009
O         17.77174        12.28563         1.95497
O          1.93529         8.88166        -2.27700
O         13.71322         8.14150         1.87982
O          1.25050        18.80126        -0.80985
O         17.77695         6.44046         2.20344
O         10.64452        11.52715         1.54106
O          2.57146        12.39503        -2.17588
O         12.00974        25.61260        -2.32620
O         11.92472        18.72896        -2.67527
O          9.13335        25.72120        -2.51733
O          6.13568        23.06168         0.64124
O          5.26663        14.68455        -2.92089
O          5.77720         9.63758        -2.37999
O          9.07512        16.76012         0.20632
O          3.79218         6.60301        -2.10765
O          6.27671        25.67213        -2.05796
O         19.08361        21.02808         1.14726
O          5.77192        20.03353        -2.55084
O         19.72794         9.16691        -1.31148
O         18.04349         7.13024        -1.32816
H         18.24183         7.86498        -1.95382
O          7.05018         5.51271        -1.89291
H          7.82193         5.07785        -2.31082
O          7.14543         8.63703         1.59729
H          7.99351         9.04776         1.87816
O          4.21898        17.05740        -2.74232
H          4.82021        17.59041        -3.30456
O         20.11208        22.88698        -1.85513
H         20.15501        23.82764        -2.12858
O          6.11837         6.11451         1.60481
H          6.54198         6.94675         1.93297
O          1.81669         4.98348        -2.01948
H          2.26736         5.63282        -2.61216
O         19.58764        14.23132         2.45391
H         18.85242        13.60995         2.68680
O         12.55314         8.67278        -1.52483
H         11.77266         9.03627        -1.99358
O          6.90549        23.05779        -2.95824
H          7.54786        22.52036        -3.47455
H          1.17947         2.26783         0.78383
H         -0.82749         3.65867         1.22411
H         -0.77119         6.10044         0.93963
H         -0.92824         7.90603         0.27504
H         -0.87529        10.32179         0.16251
H         -0.26814        11.93159         1.38389
H         -0.10098        14.32850         1.84487
H         -0.03979        16.25793         2.07768
H         -0.09061        18.67060         2.24576
H         -0.39260        20.57756         1.95335
H         -0.36750        22.98535         2.32709
H         -0.29335        24.85722         2.67528
H         -0.29895        27.28726         2.94343
H          0.67865        29.52845         2.41047
H          3.62582         2.27486         0.50041
H          2.62375        30.86362         1.70938
H          6.11745         2.31055         0.44661
H          5.03129        30.92533         1.09597
H          8.59720         2.34440         0.28073
H          7.34551        31.01493         0.44897
H         11.02194         2.37363         0.20194
H          9.61298        31.21380        -0.29880
H         13.45800         2.40194         0.53479
H         12.50716        31.17405        -0.27109
H         15.87956         2.42311         1.01547
H         14.77489        31.03067         0.34726
H         18.33677         2.47385         1.50963
H         17.19489        31.00479         0.62436
H         20.47411         3.66894         1.25098
H         21.76165         5.72543         0.62058
H         21.80538         8.08005        -0.03474
H         21.84108        10.17960         0.10748
H         21.82755        12.56545         0.55102
H         21.87987        14.48380         0.82161
H         21.90796        16.78817         0.13922
H         21.97973        18.66684        -0.21025
H         21.99950        21.08208        -0.42360
H         21.91985        23.02658         0.43658
H         21.79067        25.39859         0.96283
H         21.84216        27.30811         0.75610
H         21.78298        29.75269         1.01104
H         19.62552        30.99753         0.89284
