         284
 CSIRO Nanostructure Databank - Neutral Graphene Oxide Data Set
C        -11.07317         0.73234        -0.55523
C         -9.69557         1.35513        -0.76761
C         -8.88839         0.90629         0.49120
C         -7.52754         1.60617         0.56938
C         -6.24387         0.86217         0.41376
C         -5.06167         1.54922        -0.20120
C         -3.76529         0.84089        -0.29317
C         -2.61479         1.54700        -0.56581
C         -1.34306         0.82321        -0.85030
C         -0.02636         1.52690        -0.85839
C          1.23782         0.69996        -0.74936
C          2.42554         1.36740        -0.12766
C          3.75108         0.65858        -0.23235
C          4.90515         1.46519         0.38714
C          6.20882         0.68811         0.48005
C          7.48362         1.45559         0.24704
C          8.75855         0.69138         0.21058
C          9.87402         1.23302        -0.68328
C         11.16878         0.48904        -0.39856
C         -9.68310         2.85670        -0.97571
C         -8.63432         3.64388        -0.61922
C         -7.66011         3.16360         0.45584
C         -6.18833         3.81888         0.48945
C         -5.09237         3.06420        -0.28631
C         -3.77116         3.72429        -0.43380
C         -2.61624         3.00375        -0.63842
C         -1.31660         3.75132        -0.65724
C         -0.01487         3.01493        -0.58841
C          1.07580         3.61867         0.29145
C          2.39824         2.82374         0.23515
C          3.71920         3.56518         0.17955
C          4.87785         2.78880        -0.46080
C          6.19130         3.56474        -0.53838
C          7.43773         2.67682        -0.68433
C          8.74299         3.47163        -0.55834
C          9.89309         2.75557        -0.55856
C         -8.67486         5.10520        -0.77918
C         -7.57870         5.85370        -0.50378
C         -6.31307         5.31421         0.10057
C         -5.08003         5.93029        -0.56138
C         -3.79451         5.19434        -0.65533
C         -2.49158         5.99023        -0.69543
C         -1.37654         5.15694        -0.09207
C         -0.13743         5.82870         0.40116
C          1.19126         5.14747         0.02429
C          2.45000         5.78097         0.59722
C          3.72709         5.05201         0.25549
C          4.94313         5.81440        -0.16743
C          6.23277         5.04719        -0.32373
C          7.51135         5.76494        -0.09121
C          8.77137         5.01404        -0.56588
C         -7.37692         7.11444         0.32099
C         -6.32835         8.11282        -0.16559
C         -5.04338         7.44143        -0.54948
C         -3.75589         8.10982        -0.23805
C         -2.60669         7.39071        -0.11613
C         -1.44394         8.10437         0.55024
C         -0.13933         7.31402         0.67905
C          1.16514         8.04134         0.80508
C          2.46202         7.26263         0.75631
C          3.68175         8.01647         0.34384
C          4.98222         7.27013         0.11970
C          6.25774         7.84883         0.70669
C          7.50637         7.07915         0.25801
C         -6.22374         9.49297         0.37026
C         -5.04667        10.16341         0.40370
C         -3.75788         9.54743         0.09548
C         -2.57458        10.23540         0.14408
C         -1.24877         9.50199        -0.05134
C         -0.00215        10.20640         0.47494
C          1.20719         9.53669         0.68199
C          2.45730        10.19554         0.84490
C          3.72057         9.50782         0.50995
C          5.09483        10.09445         0.55017
C          6.23092         9.36385         0.54125
C        -11.20759        -0.54737        -0.15752
C         -9.97860        -1.43428        -0.19100
C         -8.80165        -0.63889         0.44218
C         -7.51789        -1.39182         0.49010
C         -6.21656        -0.64134         0.51804
C         -4.92898        -1.37694         0.35299
C         -3.62676        -0.63248         0.08714
C         -2.65433        -1.37838        -0.81473
C         -1.35899        -0.67797        -0.99430
C         -0.14211        -1.47650        -0.51023
C          1.20981        -0.80187        -0.72324
C          2.40627        -1.55860        -0.11991
C          3.73297        -0.82865        -0.32302
C          4.93014        -1.57049         0.12828
C          6.17575        -0.80619         0.43741
C          7.45517        -1.55685         0.11549
C          8.72203        -0.78523         0.49336
C         10.01101        -1.61149         0.32507
C         11.21560        -0.81253        -0.05181
C         -9.97077        -2.83273         0.42772
C         -8.81648        -3.54383         0.49225
C         -7.53551        -2.85265         0.01539
C         -6.26688        -3.60958         0.38936
C         -4.95754        -2.89764         0.26348
C         -3.85984        -3.64207        -0.47912
C         -2.64243        -2.90327        -0.94622
C         -1.37926        -3.70344        -1.25372
C         -0.11131        -3.02031        -0.79068
C          1.19277        -3.77931        -0.74236
C          2.48822        -3.00362        -0.64687
C          3.79723        -3.71796        -0.43401
C          4.91997        -2.92886         0.17481
C          6.07106        -3.61997         0.80544
C          7.44446        -2.91812         0.83853
C          8.56847        -3.81741         0.27031
C          9.84259        -3.02977         0.05826
C         -8.74865        -4.92825         1.16157
C         -7.50272        -5.79109         0.84666
C         -6.44325        -5.09345         0.02914
C         -4.70708        -5.76862         0.60841
C         -3.80130        -5.13726        -0.42317
C         -2.61257        -5.96445        -0.91550
C         -1.38548        -5.24326        -1.54901
C         -0.02999        -6.02153        -1.31709
C          1.28375        -5.23599        -1.14031
C          2.57025        -5.96098        -0.77643
C          3.92548        -5.25660        -0.46053
C          4.57653        -5.73671         0.85002
C          5.96622        -5.08123         1.08167
C          7.23835        -5.86239         1.09655
C          8.61659        -5.15395         1.11128
C         -7.42880        -7.12043         1.08826
C         -6.16979        -7.92958         0.96389
C         -4.85347        -7.26268         0.72674
C         -3.54627        -8.03444         0.41282
C         -2.60231        -7.42883        -0.61613
C         -1.37932        -8.33448        -0.99826
C         -0.04357        -7.53573        -1.13683
C          1.23031        -8.24723        -0.73863
C          2.49483        -7.45696        -0.48546
C          3.47224        -8.09213         0.47649
C          4.62010        -7.27888         0.99478
C          5.94079        -8.05421         1.21724
C          7.19333        -7.20626         1.13579
C         -6.17473        -9.41502         0.84947
C         -5.06783       -10.12182         0.55345
C         -3.82002        -9.51834        -0.06501
C         -2.49403       -10.20193         0.22332
C         -1.32283        -9.58284        -0.10793
C         -0.03199       -10.21659         0.10680
C          1.15465        -9.62434        -0.18693
C          2.45530       -10.41102        -0.19882
C          3.64017        -9.63977         0.44878
C          4.99360        -9.92350        -0.16786
C          6.05147        -9.19442         0.20958
O          5.90653        -8.64895         2.54253
H          5.68918        -7.94433         3.18799
O         -4.11431        -9.51946        -1.45905
H         -3.26742        -9.35565        -1.97935
O         -8.25831         3.52909         1.65958
O         -9.60841         1.28291         1.66197
H         -9.26230         2.18385         1.94185
O         -5.40236        -0.98585         1.68518
O          8.40881         1.51216         1.37124
O          6.19240         4.46565        -1.67572
O         -9.78893        -1.63893        -1.61979
H         -9.00297        -2.22441        -1.77899
O         -2.80468        -8.02501         1.64092
H         -3.42585        -8.27343         2.36384
O         -2.91975        -0.65319         1.37316
H         -3.60575        -0.53969         2.07813
O          0.58538         3.45546         1.63392
H          1.33292         3.55299         2.26118
O         -6.59995         6.23124         1.25791
O          0.11139        -6.94478        -2.43618
O          4.92142         6.78625        -1.25373
O         -2.11294         6.15715        -2.08125
H         -2.94442         6.19583        -2.60934
O          3.42945         8.84886        -0.81898
O         -4.34086        -5.29160         1.83318
H         -4.73779        -5.88363         2.52256
O          0.42675         7.61672         1.99608
O         -1.09580         5.19668         1.32364
O         -5.50736        -3.35822         1.56535
O          1.47601        -0.10350        -1.94694
O         -4.65798         5.41289        -1.85121
O         -5.92476         8.01260        -1.56865
O          3.40241        -3.18102        -1.74822
O          6.23821        -0.12073         1.72162
O         -3.21597        -6.94231        -1.82806
O         -1.89737         8.43528         1.92971
O          1.42149         5.41779        -1.37262
H          0.70404         5.00324        -1.92000
O          3.49371        -7.64164         1.86024
O         -7.46346        -2.85880        -1.43257
H         -7.19265        -3.78326        -1.71709
O         -4.41985        -4.47318        -1.54048
O         -2.26244        -0.87285        -2.12065
O          2.32609        -8.19236        -1.72474
O         -1.58984        -5.28948        -2.95651
H         -1.66891        -6.23523        -3.21850
O         -0.72356         1.30400        -2.10187
O          9.05254        -4.94465         2.43299
H          8.49074        -4.24162         2.83921
O          0.35354        -3.67871         0.44892
O          5.81587        -4.11840         2.17253
O          2.55378         6.36756         1.91381
O         -5.47815         2.26010        -1.42886
O         -8.32485        -1.21013         1.68725
O          4.62300         1.82903         1.74035
H          4.84273         1.06239         2.31545
O         -0.42798         3.70144        -1.81555
O         -6.71469         1.33943         1.72271
O          4.81631        -5.60764        -1.52363
H          4.35861        -5.38699        -2.36701
O          9.45316        -1.17103         1.64481
O          2.25088         1.77182         1.25469
O         -1.66803        -8.88904        -2.24895
O          3.66971        -5.22260         1.83508
H          4.05856        -5.34053         2.72668
O         -6.59185        -5.34057        -1.23364
O          2.23741        -5.60126        -2.15436
O          3.99122        -0.00609        -1.49629
O         -0.30749        -1.34663         0.93621
H         -1.26481        -1.27697         1.19215
O         -5.25101        -7.56939         2.10959
O         -2.18509        -3.14609        -2.29853
O          4.10592         4.22272         1.41463
O         -5.76349         3.75645         1.84006
H         -6.59777         3.85758         2.37439
O          6.14871         7.64922         2.15042
H          6.18337         6.68795         2.34160
O         -2.39400         7.22579         2.54114
H         -1.56438         6.74732         2.79874
O         -9.02799         0.84031        -1.94122
H         -9.41413        -0.04606        -2.16743
O          7.26794         2.10595        -1.98053
O          7.49491        -1.76425        -1.31549
H          7.53928        -0.89686        -1.77730
O          9.54062         0.85931        -2.04240
H          8.72834         1.39738        -2.30711
O          4.53946         2.48233        -1.80998
H          5.39739         2.33274        -2.29258
O          7.72538        -2.67879         2.22209
H          7.09982        -2.00310         2.56414
O          8.20853        -4.29744        -1.04001
H          8.00900        -3.51937        -1.61477
O          9.91884         5.48197         0.13815
H          9.87789         5.15417         1.05960
O         -8.81138        -4.73503         2.57965
H         -8.27330        -3.95230         2.82128
O          3.66256       -10.12156         1.80265
H          4.41829        -9.68717         2.27282
O         -0.99552         9.34004        -1.47215
H         -1.04742        10.21708        -1.90561
O          2.28092        -1.62378         1.31044
H          1.35979        -1.90262         1.53601
O          2.74933       -10.80504        -1.53971
H          2.65368       -10.01248        -2.11723
H         12.19223        -1.31433         0.03653
H         12.11369         1.00959        -0.62009
H         10.86444         3.27359        -0.50272
H          8.91142         5.31515        -1.64056
H          8.47306         7.60003         0.35530
H          7.19677         9.89292         0.52696
H          5.16757        11.19326         0.51262
H          2.46958        11.29154         0.96353
H          0.01759        11.30852         0.41565
H         -2.57193        11.32220         0.32272
H         -5.03174        11.20452         0.76064
H         -7.14716         9.99078         0.70460
H         -8.26729         7.57640         0.80603
H         -9.63949         5.58152        -1.01709
H        -10.48112         3.27795        -1.60894
H        -11.95951         1.38271        -0.62192
H        -12.19843        -0.98046         0.04604
H        -10.91661        -3.27915         0.77476
H         -9.65843        -5.51822         0.87394
H         -8.28372        -7.63997         1.55238
H         -7.09411        -9.93748         1.15633
H         -5.12932       -11.22156         0.55312
H         -2.47813       -11.13960         0.80093
H         -0.03487       -11.25271         0.48091
H          2.31530       -11.35014         0.39033
H          5.09773       -10.75191        -0.88459
H          7.05278        -9.41604        -0.19071
H          8.13959        -7.77124         1.14833
H          9.35304        -5.83638         0.61432
H         10.57620        -3.49618        -0.62109
