         349
 CSIRO Nanostructure Databank - Neutral Graphene Oxide Data Set
C          1.98922         3.53529         1.79065
C          0.91154         4.29252         2.30770
C          1.41084         6.17912         0.79276
C          0.67540         5.58993         1.91951
C          1.38325         7.65111         0.56595
C          0.23513         8.35219         0.91088
C          1.26321        10.46719         0.28023
C          0.16099         9.73936         0.74759
C          1.18557        11.92030         0.18810
C          0.02048        12.62665         0.29379
C          1.08129        14.79661        -0.12543
C         -0.01176        14.07024         0.22982
C          1.03822        16.26117        -0.39614
C         -0.14624        17.07226        -0.07874
C          1.17384        19.15717        -0.00802
C         -0.06497        18.42295         0.07632
C          1.25190        20.55179         0.51272
C          0.07488        21.35884         0.79746
C          1.42240        23.39854         1.11287
C          0.19696        22.67989         1.16279
C          1.49588        24.79713         1.59968
C          0.28987        25.60393         1.83950
C          1.55882        27.70075         1.67558
C          0.35736        26.95406         1.98023
C          1.55765        29.15355         1.75569
C          4.13260         3.46352         0.60511
C          2.91300         4.09547         0.88946
C          3.66361         6.14698        -0.46550
C          2.58377         5.39145         0.25339
C          3.64643         7.62385        -0.44200
C          2.51209         8.34505        -0.00697
C          3.61113        10.54949        -0.53885
C          2.46271         9.78835        -0.09740
C          3.65700        11.93456        -0.41513
C          2.48120        12.68819         0.17355
C          3.62208        14.81611        -0.16015
C          2.35240        14.05515        -0.51062
C          3.61013        16.31096        -0.16484
C          2.34005        17.02434        -0.49833
C          3.63106        19.16775        -0.37429
C          2.35795        18.48818        -0.29960
C          3.55957        20.65837        -0.63400
C          2.55848        21.32275         0.34516
C          3.74927        23.52249         0.24604
C          2.57815        22.79858         0.53604
C          3.87883        24.91743         0.53921
C          2.78857        25.58204         1.30284
C          3.81774        27.80769         0.58203
C          2.68805        27.04360         1.23226
C          3.90930        29.23555         1.07467
C          2.68948        29.87343         1.52382
C          6.32406         3.39261        -0.46401
C          5.14699         4.05119        -0.20720
C          6.17577         6.22903        -1.03338
C          4.95290         5.42584        -0.76004
C          6.09067         7.59324        -1.16820
C          4.79259         8.31786        -1.05920
C          6.06676        10.61764        -1.43091
C          4.76278         9.83555        -1.14986
C          6.08918        12.02757        -0.88472
C          4.87887        12.69295        -0.62307
C          6.08267        14.85779        -0.54640
C          4.89621        14.11473        -0.42540
C          6.05185        16.31095        -0.48139
C          4.87965        17.03092        -0.34721
C          6.11226        19.19713        -0.33351
C          4.84341        18.48225        -0.39421
C          6.06380        20.66921        -0.14212
C          4.85522        21.37868        -0.51565
C          6.15582        23.57550        -0.55474
C          4.81748        22.87437        -0.64836
C          6.10139        25.08599        -0.64648
C          5.01720        25.64777         0.23749
C          6.30796        27.85537         0.21597
C          5.14152        27.05770         0.77043
C          6.32419        29.27529         0.53834
C          5.10231        29.89806         1.02280
C          8.72066         3.35182        -1.00908
C          7.40286         4.00539        -1.31148
C          8.62294         6.19393        -1.29226
C          7.44127         5.52061        -1.16932
C          8.64570         7.66535        -1.43447
C          7.32128         8.38130        -1.42397
C          8.58232        10.53571        -0.75621
C          7.29431         9.82157        -0.99816
C          8.57802        12.02356        -0.76797
C          7.32939        12.72769        -0.80479
C          8.57847        14.84589        -0.67605
C          7.33323        14.15546        -0.69475
C          8.59311        16.32128        -0.83166
C          7.29452        17.06862        -0.73495
C          8.61834        19.19695        -0.35926
C          7.30506        18.51765        -0.41983
C          8.66357        20.69690        -0.30341
C          7.37050        21.45431        -0.14834
C          8.63722        23.61487        -0.45468
C          7.33197        22.90324        -0.48026
C          8.61420        25.08726        -0.59842
C          7.43878        25.77171        -0.44058
C          8.66999        27.98208        -0.52601
C          7.42760        27.21791        -0.27311
C          8.70117        29.44934        -0.15456
C          7.48563        30.00831         0.44904
C         11.15842         3.33863        -0.88824
C          9.91438         4.01886        -1.07536
C         11.11507         6.23967        -1.00448
C          9.92473         5.46463        -1.53218
C         11.13033         7.72492        -1.13539
C          9.90214         8.41545        -1.14712
C         11.08284        10.49897        -0.69037
C          9.87774         9.81022        -0.91525
C         11.01961        11.93322        -0.30033
C          9.77336        12.71173        -0.54903
C         11.03287        14.91170        -0.30831
C          9.78318        14.14080        -0.53279
C         11.09525        16.35132        -0.67015
C          9.86217        17.08018        -0.70476
C         11.10336        19.20586        -0.82846
C          9.86013        18.46370        -0.71716
C         11.10851        20.58956        -0.95320
C          9.80933        21.37254        -1.04311
C         11.15244        23.55433        -0.98205
C          9.92522        22.83914        -0.63460
C         11.13662        25.00992        -1.15641
C          9.87660        25.80045        -0.91830
C         11.15859        27.91551        -0.54613
C          9.95692        27.25043        -0.61190
C         11.26056        29.33150        -0.22806
C         10.02692        30.14057         0.13122
C         13.60993         3.36850        -0.63623
C         12.38884         4.01182        -0.85832
C         13.68503         6.17045        -1.20982
C         12.38752         5.50057        -0.81218
C         13.64686         7.69534        -1.09365
C         12.34808         8.41840        -0.96660
C         13.58059        10.52172        -0.44064
C         12.33271         9.81592        -0.72018
C         13.58766        11.94409        -0.31806
C         12.31624        12.66892        -0.11691
C         13.57419        14.83687        -0.53471
C         12.35119        14.16894        -0.14036
C         13.58737        16.26314        -0.98265
C         12.30781        17.02158        -0.73395
C         13.59525        19.10487        -0.88103
C         12.35304        18.45382        -0.85361
C         13.70288        20.55832        -1.30222
C         12.34965        21.29924        -1.33755
C         13.70527        23.54996        -1.27469
C         12.35846        22.81325        -1.33991
C         13.57828        25.00511        -0.84472
C         12.42734        25.71031        -0.98137
C         13.72154        27.92675        -0.86326
C         12.41315        27.20216        -0.90797
C         13.75089        29.31248        -0.32592
C         12.47870        29.96334        -0.13011
C         15.96362         3.39723         0.07404
C         14.82639         4.09406        -0.39448
C         16.09008         6.20771        -0.30710
C         14.88765         5.50911        -0.56242
C         16.12805         7.66780        -0.30629
C         14.90673         8.41381        -0.70078
C         15.99501        10.52803         0.00818
C         14.80807         9.83953        -0.34424
C         15.98994        11.95053         0.05242
C         14.78426        12.64957        -0.23737
C         15.99665        14.87684        -0.07796
C         14.85478        14.08467        -0.69135
C         16.00846        16.24829        -0.18041
C         14.83067        17.00874        -0.55099
C         16.11634        19.15858        -0.43730
C         14.81257        18.39557        -0.59914
C         15.98225        20.61843        -0.09925
C         14.72694        21.30336        -0.44423
C         16.01105        23.48071        -0.17932
C         14.71378        22.80116        -0.40466
C         16.04779        24.89174        -0.23681
C         14.77833        25.71419        -0.24507
C         16.14469        27.79243        -0.16622
C         15.01040        27.10114        -0.89283
C         16.21829        29.24127        -0.10534
C         14.94684        29.94183        -0.06377
C         18.32912         3.36635         0.82965
C         17.16287         4.07267         0.33730
C         18.52371         6.14411         0.28872
C         17.23453         5.47245         0.10949
C         18.52353         7.69657         0.34603
C         17.22641         8.37397         0.15529
C         18.31369        10.51799         0.81353
C         17.19923         9.81876         0.32957
C         18.30273        11.95466         0.87234
C         17.14550        12.65431         0.46514
C         18.31563        14.80142         0.94650
C         17.00406        14.11963         0.76758
C         18.36953        16.26982         0.82381
C         17.22202        17.01046         0.21751
C         18.14723        19.15753         1.09878
C         17.11968        18.45220         0.43548
C         18.11664        20.60014         1.11949
C         17.09426        21.32080         0.35760
C         18.45569        23.44688        -0.13198
C         17.19247        22.75862         0.07042
C         18.50638        24.88221        -0.11828
C         17.24728        25.56604        -0.00830
C         18.93704        27.95613        -0.00531
C         17.14699        26.98023         0.29341
C         18.68743        29.26510        -0.48202
C         17.42823        29.92542        -0.19547
C         19.48306         4.01712         1.15347
C         20.70461         6.16231         1.42515
C         19.61701         5.43985         0.96851
C         20.68013         7.58614         1.50523
C         19.60438         8.33909         1.09278
C         20.70048        10.57336         1.56684
C         19.42329         9.77811         1.53632
C         20.68442        11.93265         1.53502
C         19.48107        12.67973         1.29664
C         20.64376        14.92862         1.66297
C         19.46395        14.11739         1.32293
C         20.55778        16.25275         1.91334
C         19.20634        16.94250         1.88496
C         20.10588        19.17557         2.56981
C         19.19857        18.45565         1.80000
C         19.98988        20.56660         2.71600
C         18.98886        21.26345         2.02226
C         20.86532        23.42539        -0.63065
C         19.65494        22.74946        -0.47754
C         20.90505        24.82511        -0.55867
C         19.74759        25.58177        -0.35621
C         20.71839        27.59783        -1.54430
C         19.82973        27.04418        -0.60480
C         20.65822        28.96394        -1.86789
C         19.64238        29.78806        -1.38651
O          7.99066         8.12485        -2.69048
O         12.18119        22.03152        -2.62529
O          7.87474        16.74737        -2.06000
O         14.52132         8.25643        -2.13623
O         18.94917         6.96297        -0.84339
O         14.13677        22.04883         0.70090
O          8.53709        29.03823        -1.54959
O         11.62863        14.74409         1.02628
O         11.61847         5.94049         0.35512
O          3.94055         5.55923        -1.80468
O          2.53671        25.00277         2.61588
O          1.66747        16.56775        -1.71896
O         10.30905        25.47712        -2.30857
O         18.17255        27.51715         1.09512
O          7.73718        10.00819         0.37182
O          3.54900        15.55527         1.09876
O         13.00271        27.81341        -2.13677
O         18.48152        16.70447        -0.56395
O         11.58542        12.14568         1.04333
O          8.95767        19.95037         0.89143
O          6.70472        21.17028         1.10997
O          4.39707         9.03326        -2.31519
O          1.30924         5.39509        -0.45714
O          2.31321        20.62002         1.56901
O          9.43761        23.17479         0.72166
O          3.56937        27.83834        -0.85680
H          2.78530        28.40612        -1.01244
O          5.71750        25.43047        -2.03481
H          5.47328        26.38281        -2.04588
O          2.81007        12.94978         1.56705
H          2.83466        12.09362         2.04217
O         15.40903        26.91131        -2.26130
H         14.61995        27.11324        -2.81874
O          4.29407        23.16343        -1.99909
H          4.62199        24.07087        -2.24868
O         18.83813        22.59402         2.26251
H         19.49083        22.88677         2.92836
O         14.23768        20.51957        -2.64354
H         13.92491        21.33734        -3.10101
O          5.35252        26.98088         2.20764
H          6.04130        26.30805         2.38785
O         10.07987        30.49034         1.52766
H         10.24957        29.67991         2.04995
O         14.42830        25.98159         1.14504
H         14.38964        25.12490         1.62109
O         16.72851        19.12455        -1.78095
H         17.61371        19.54309        -1.71463
O         13.69898        16.22612        -2.48081
H         13.93377        17.13529        -2.77426
O         18.96979         9.68926         2.93976
H         18.80044        10.60485         3.24935
O          2.32168        13.85294        -1.93764
H          2.09454        14.72072        -2.34913
O         16.37752        14.16026         2.12445
H         16.72234        14.95578         2.58992
O         10.10452         5.44416        -2.97590
H          9.32220         4.99823        -3.36758
O          7.10062         3.74632        -2.72663
H          6.20285         4.10144        -2.90600
O         18.50890        16.59187         3.13258
H         18.99060        17.01526         3.87459
O         13.79509         5.85428        -2.62599
H         14.37622         6.54608        -3.02192
O          9.42606        21.37573        -2.44701
H         10.22038        21.67445        -2.95444
O          6.17837        10.78367        -2.86438
H          5.63583        10.07201        -3.28232
O          2.98026        20.81597        -1.95944
H          3.30842        21.67377        -2.32693
O         15.18773        13.97306        -2.12166
H         14.83535        14.78565        -2.56641
O         14.29026        23.56143        -2.59906
H         13.65827        23.99911        -3.20803
O         19.61072        21.41294        -0.75261
H         20.49956        21.10746        -1.02266
H          2.18598         2.53436         2.20046
H          0.30034         3.85221         3.10867
H         -0.06806         6.19413         2.45778
H         -0.63617         7.81579         1.31005
H         -0.76465        10.25732         1.02948
H         -0.94453        12.11099         0.39920
H         -0.97504        14.56384         0.42535
H         -1.10696        16.56839         0.09905
H         -0.97977        18.97220         0.34043
H         -0.92728        20.91774         0.70784
H         -0.71484        23.21629         1.46007
H         -0.68545        25.10451         1.92493
H         -0.55377        27.52357         2.21671
H          0.64051        29.65486         2.09730
H          4.33498         2.47766         1.05006
H          2.70323        30.95956         1.69992
H          6.46886         2.37269        -0.07603
H          5.15316        30.95596         1.32484
H          8.71155         2.27940        -0.75772
H          7.51765        31.03687         0.83782
H         11.14076         2.24546        -0.75582
H         10.04734        31.11005        -0.43121
H         13.63557         2.27060        -0.56081
H         12.49368        31.02159         0.17436
H         15.90330         2.31066         0.23402
H         14.94168        31.00196         0.23463
H         18.24859         2.27955         0.97632
H         17.38862        31.02096        -0.31065
H         20.33451         3.46147         1.57324
H         21.55106         5.62934         1.88237
H         21.50756         8.06963         2.04408
H         21.65109        10.05192         1.74727
H         21.63039        12.47672         1.66932
H         21.62508        14.43636         1.72610
H         21.46250        16.82191         2.17618
H         20.89754        18.64851         3.12213
H         20.66533        21.11076         3.39056
H         21.77515        22.86059        -0.87893
H         21.86493        25.33272        -0.72577
H         21.45502        26.96081        -2.05372
H         21.37923        29.36896        -2.59173
H         19.54010        30.81633        -1.76101
