         420
 CSIRO Nanostructure Databank - Neutral Graphene Oxide Data Set
C         27.86359        27.55539         0.19340
C         27.87196        28.70869        -0.62083
C         26.69559        29.51345        -0.91106
C         27.86162        31.73098        -1.02105
C         26.69050        30.87561        -1.08406
C         27.86285        33.08999        -0.55490
C         26.65313        33.80827        -0.34144
C         27.87598        35.87399         0.10898
C         26.65682        35.15467        -0.05521
C         27.90158        37.29782         0.36956
C         26.70446        38.03201         0.53847
C         27.93079        40.13539         0.70452
C         26.71394        39.40432         0.69672
C         27.94368        41.60486         0.76334
C         26.68943        42.36030         0.65949
C         27.98044        44.42639         0.29457
C         26.67934        43.69648         0.49992
C         27.94298        45.90083         0.61128
C         30.31744        27.53330         0.24516
C         29.06920        26.94568         0.54213
C         30.36630        28.72893        -0.51091
C         29.13762        29.13513        -1.07211
C         30.35673        31.72482        -0.98056
C         29.11555        31.18888        -1.36025
C         30.36759        33.08828        -0.56889
C         29.10818        33.77796        -0.35685
C         30.34193        35.85572         0.32093
C         29.08962        35.14873         0.01774
C         30.38143        37.31454         0.36062
C         29.14665        38.01676         0.42256
C         30.44218        40.19538         0.55201
C         29.13829        39.43352         0.60836
C         30.39135        41.54755         1.28676
C         29.12298        42.27917         0.91962
C         30.41636        44.46641         0.77629
C         29.10734        43.77239         1.09760
C         30.39492        45.85876         0.67339
C         29.10742        46.55839         0.76147
C         32.86863        24.84110         0.99609
C         31.67303        25.47186         0.92014
C         32.88778        27.61219         0.29498
C         31.59360        26.92298         0.69810
C         32.83723        28.90165        -0.42705
C         31.59328        29.51712        -0.69844
C         32.80302        31.64192        -0.99322
C         31.57367        30.93207        -0.96057
C         32.82753        33.10108        -0.92154
C         31.60674        33.75899        -0.53381
C         32.82243        35.96390        -0.32898
C         31.65912        35.11245        -0.01017
C         32.86612        37.28099         0.31390
C         31.65718        37.98645         0.52455
C         32.91216        40.06484         1.14674
C         31.66534        39.36395         0.89191
C         32.91637        41.62121         1.13047
C         31.65935        42.33597         0.98864
C         32.87764        44.46616         0.65850
C         31.65393        43.74130         0.77654
C         32.86737        45.87545         0.52200
C         31.61999        46.58152         0.51526
C         32.81034        48.69899         0.30150
C         31.63389        47.99992         0.38816
C         35.40533        23.42746         1.30539
C         35.37283        24.79487         0.90251
C         34.13496        25.50775         0.75520
C         35.35934        27.47006        -0.10456
C         34.14263        26.83687         0.29358
C         35.34028        28.84278        -0.62948
C         34.06264        29.55351        -0.72934
C         35.24870        31.63863        -1.46000
C         34.02566        30.93407        -1.02156
C         35.32913        33.16443        -1.43341
C         34.03392        33.80039        -0.97623
C         35.38129        35.91341        -0.51375
C         34.07954        35.25991        -0.80637
C         35.39328        37.28925        -0.07334
C         34.18100        37.89658         0.48809
C         35.39920        40.14732         0.46157
C         34.22897        39.38056         0.89379
C         35.32092        41.58412         0.42332
C         34.17701        42.28981         0.75356
C         35.38920        44.49125         0.39121
C         34.19117        43.78270         0.96408
C         35.35569        45.91210         0.29244
C         34.09925        46.61189         0.39695
C         35.29714        48.76251         0.20146
C         34.07588        48.03036         0.29765
C         35.31501        50.20197         0.11059
C         37.84447        23.39609         1.22777
C         36.59120        22.74912         1.43134
C         37.85840        24.76931         0.85472
C         36.60418        25.46197         0.64501
C         37.85583        27.41492        -0.26106
C         36.56951        26.78281         0.10652
C         37.81572        28.79812        -0.83518
C         36.51751        29.47882        -0.98854
C         37.84172        31.65987        -1.68934
C         36.53304        30.86377        -1.52528
C         37.82545        33.05125        -1.04897
C         36.52047        33.65758        -0.57911
C         37.81004        35.84086        -0.15997
C         36.54524        35.17640        -0.50656
C         37.85064        37.31394        -0.10209
C         36.60785        38.00321         0.04087
C         37.84414        40.12861        -0.00018
C         36.60690        39.44483         0.19038
C         37.82179        41.58353        -0.22584
C         36.51821        42.32755        -0.03926
C         37.79939        44.48183        -0.07786
C         36.56777        43.79456         0.13129
C         37.79940        45.90900        -0.08085
C         36.55686        46.61708         0.04888
C         37.75095        48.77355         0.03624
C         36.54998        48.06449         0.09170
C         37.77433        50.21923         0.45135
C         36.47149        50.90686         0.16206
C         40.34387        20.60728         1.78853
C         39.14301        21.33465         1.79649
C         40.33130        23.45142         1.36764
C         39.07966        22.69411         1.46400
C         40.33367        24.80714         0.79552
C         39.10787        25.45089         0.65516
C         40.37754        27.59828         0.13282
C         39.05559        26.95815         0.56264
C         40.32720        28.95907        -0.47146
C         39.03976        29.62741        -0.79306
C         40.32437        31.66168        -1.32045
C         39.06131        30.92106        -1.19916
C         40.27670        33.07326        -1.28129
C         39.03221        33.71913        -0.96282
C         40.34483        35.89115        -0.54538
C         39.10296        35.09951        -0.40863
C         40.33042        37.29517        -0.28498
C         39.07847        37.99861        -0.10601
C         40.31003        40.17167        -0.18080
C         39.07256        39.44123        -0.08406
C         40.31059        41.61497        -0.22707
C         39.08041        42.33763        -0.22251
C         40.25262        44.50261        -0.31612
C         39.04279        43.76964        -0.23100
C         40.25094        45.91946        -0.26834
C         39.02673        46.61590        -0.20147
C         40.27649        48.81624        -0.10019
C         38.99933        48.10044        -0.46578
C         40.26203        50.18015         0.04218
C         39.01838        50.93970        -0.00817
C         40.28281        52.93553        -0.63682
C         39.04386        52.26641        -0.34197
C         42.74905        20.44761         1.20475
C         41.56600        21.19755         1.45237
C         42.83343        23.27557         0.73910
C         41.65300        22.65756         1.35998
C         42.80364        24.64802         0.34784
C         41.59225        25.41880         0.41481
C         42.77989        27.34393        -0.55778
C         41.60364        26.76485        -0.04387
C         42.75984        28.68286        -1.22343
C         41.50127        29.48178        -1.22927
C         42.80722        31.62051        -1.64152
C         41.52287        30.94468        -1.43520
C         42.80541        33.15153        -1.64437
C         41.47757        33.92097        -1.64004
C         42.76897        35.93695        -0.82401
C         41.53564        35.24657        -0.90987
C         42.77945        37.33835        -0.54862
C         41.54573        38.03054        -0.35593
C         42.77771        40.18861        -0.32159
C         41.54091        39.47078        -0.26808
C         42.77482        41.62545        -0.34760
C         41.53865        42.31643        -0.34008
C         42.77742        44.51169        -0.38505
C         41.50954        43.77597        -0.71880
C         42.75519        45.92677        -0.25316
C         41.51419        46.65572        -0.23708
C         42.76346        48.75595         0.04819
C         41.51871        48.05495        -0.09632
C         42.78758        50.20949         0.04927
C         41.51393        50.97390         0.29366
C         42.74400        52.99343        -0.60047
C         41.48423        52.32599        -0.39235
C         43.92431        21.07460         0.85987
C         45.23328        23.12703         0.24132
C         43.99249        22.48488         0.60786
C         45.21201        24.47595        -0.17601
C         44.00987        25.24487        -0.15878
C         45.23359        27.33193        -0.80856
C         44.00141        26.61892        -0.57272
C         45.27632        28.71705        -0.96526
C         44.07350        29.40611        -1.54724
C         45.22936        31.59556        -1.09295
C         44.04705        30.90135        -1.29090
C         45.23881        33.05508        -1.06976
C         44.04147        33.81322        -1.21992
C         45.22546        35.94406        -0.89152
C         44.01520        35.22804        -0.97297
C         45.24580        37.35197        -0.70165
C         44.01797        38.05579        -0.53896
C         45.24737        40.20327        -0.42394
C         44.01490        39.48349        -0.40992
C         45.24576        41.63606        -0.39524
C         44.01487        42.34996        -0.40441
C         45.22227        44.53877        -0.37624
C         43.99418        43.80376        -0.38379
C         45.23051        45.92876        -0.21034
C         43.98626        46.63388        -0.09525
C         45.22415        48.78636         0.44439
C         43.96717        48.04569         0.08088
C         45.24754        50.22239        -0.04365
C         43.97216        50.91689        -0.11482
C         43.92442        52.33997        -0.41011
C         47.69007        23.08677         0.17128
C         46.48199        22.44274         0.35309
C         47.75062        24.42985        -0.27173
C         46.48137        25.07728        -0.61766
C         47.75535        27.31926        -0.64408
C         46.50435        26.59753        -0.87131
C         47.72355        28.74280        -0.58785
C         46.49487        29.45184        -0.83335
C         47.67613        31.60046        -0.60150
C         46.47905        30.87897        -0.86319
C         47.68079        33.03970        -0.61055
C         46.46688        33.73131        -0.87631
C         47.77878        35.93105        -0.98411
C         46.47783        35.19229        -1.07680
C         47.73668        37.39320        -0.73834
C         46.49705        38.07411        -0.64951
C         47.72692        40.20927        -0.51294
C         46.48916        39.49574        -0.50768
C         47.72578        41.65352        -0.48784
C         46.50249        42.33177        -0.42912
C         47.78641        44.54972        -0.62562
C         46.48185        43.79843        -0.60845
C         47.80224        46.07473        -0.59820
C         46.47683        46.69239        -0.17218
C         47.72969        48.78695         0.13889
C         46.47712        48.03580         0.08740
C         47.69813        50.15544         0.00942
C         46.45981        50.85380        -0.17625
C         50.22737        24.49574        -0.28810
C         48.96710        25.15906        -0.38813
C         50.19071        27.31773        -0.29897
C         48.96362        26.59680        -0.48660
C         50.16183        28.74567        -0.19455
C         48.92588        29.46352        -0.35931
C         50.05733        31.62234         0.04232
C         48.89438        30.89511        -0.33150
C         50.04854        33.03081         0.08699
C         48.89014        33.75461        -0.31151
C         50.13084        35.90651        -0.32068
C         48.96979        35.18964        -0.50432
C         50.24619        37.30710        -0.88554
C         48.95511        38.09156        -0.68400
C         50.21812        40.24512        -0.73728
C         48.94784        39.49754        -0.61054
C         50.22546        41.68679        -0.43732
C         48.99555        42.37464        -0.43807
C         50.18877        44.45376         0.08317
C         49.01485        43.79584        -0.29711
C         50.09761        45.83469         0.67884
C         48.95392        46.66788         0.17162
C         50.13876        48.67739         0.89171
C         48.95265        48.02723         0.38897
C         51.40519        25.19324        -0.20770
C         52.64266        27.34877         0.05545
C         51.42229        26.62085        -0.15464
C         52.59255        28.76327         0.24192
C         51.34834        29.43860         0.14043
C         52.55242        31.62915         0.73553
C         51.25209        30.86947         0.47296
C         52.55174        33.08887         0.61098
C         51.24890        33.76293         0.55048
C         52.59693        35.95322         0.27940
C         51.28778        35.29061         0.32919
C         52.62273        37.36955         0.01200
C         51.47558        38.03797        -0.39484
C         52.74498        40.22736        -0.25846
C         51.52531        39.48362        -0.62346
C         52.70602        41.65467        -0.14888
C         51.46051        42.36407        -0.20533
C         52.63693        44.46576         0.43651
C         51.42702        43.76076         0.12518
C         52.61816        45.88289         0.70878
C         51.40171        46.58980         0.73700
C         51.32479        47.99156         0.99047
C         55.07623        27.38624         0.28259
C         53.90715        26.68796         0.10136
C         55.06303        28.80096         0.44651
C         53.81975        29.49588         0.45887
C         55.03556        31.63279         0.69803
C         53.82567        30.90583         0.61575
C         55.00897        33.08364         0.77803
C         53.75609        33.79499         0.66036
C         55.01770        35.95744         0.68953
C         53.77081        35.24545         0.55256
C         55.03133        37.38802         0.58721
C         53.87365        38.08764         0.18109
C         55.25137        40.20098        -0.06404
C         53.91191        39.50523         0.00161
C         55.16722        41.68453         0.21039
C         53.91619        42.35965         0.16747
C         55.09809        44.47244         0.66602
C         53.87534        43.76815         0.42451
C         55.05739        45.88496         0.91234
C         53.87125        46.55680         0.93071
C         56.27197        29.53330         0.57700
C         56.26078        30.90703         0.68058
C         56.19127        33.82662         0.92765
C         56.19658        35.21958         0.91099
C         56.20198        38.15441         0.97506
C         56.28757        39.48482         0.76350
C         56.34524        42.40619         0.41626
C         56.31870        43.78468         0.63881
O         50.98682        34.70268         1.64148
O         34.47343        38.34332         1.87938
O         32.97687        40.84017         2.41109
O         42.94348        32.39837        -2.89817
O         41.18347        23.35550         2.55809
O         29.15510        30.03032        -2.15256
O         47.25287        35.56131        -2.29741
O         40.64499        28.80570         0.96241
O         35.69468        31.04089        -2.72724
O         38.53463        35.16216         0.95538
O         36.94488        41.93313        -1.38977
O         51.69067        31.16533         1.84601
O         46.49894        25.63199        -1.97583
O         41.86792        28.66838        -2.40689
O         33.20293        35.99261        -1.75300
O         47.16950        44.11736        -1.89187
O         50.97704        39.88431        -1.95548
O         38.03857        27.59214        -1.69328
O         32.32632        27.73777         1.66660
O         31.18736        35.23122         1.35741
O         38.90852        48.22311        -1.94363
H         38.14860        47.67582        -2.23710
O         38.06042        31.87489        -3.10346
H         37.17805        32.08652        -3.49079
O         41.46595        43.76748        -2.20521
H         40.65351        43.28349        -2.46851
O         37.89242        50.19668         1.93043
H         37.10704        49.72137         2.27687
O         45.20488        48.89153         1.91909
H         46.00563        49.39560         2.17833
O         38.75929        27.38649         1.91967
H         39.39283        28.10986         2.14182
O         34.35372        43.94144         2.43078
H         33.70770        43.34212         2.86432
O         36.29778        33.18196         0.77894
H         36.98316        33.60895         1.34341
O         28.33859        44.28358        -1.11118
H         27.61736        44.67182        -1.64808
O         55.69224        40.07979        -1.46480
H         55.69834        39.12442        -1.68673
O         50.42781        37.16347        -2.32917
H         50.55962        38.07834        -2.67888
O         30.65097        40.54798        -0.86119
H         30.54336        39.73155        -1.39385
O         41.52640        51.27654         1.73791
H         42.34977        51.77688         1.92107
O         35.60293        33.64067        -2.77166
H         34.87780        33.33973        -3.35855
O         30.33567        41.35013         2.72676
H         31.22625        41.00643         2.99833
O         28.85829        43.99345         2.51591
H         29.33841        43.28809         3.00700
O         48.01716        46.51578        -1.97497
H         47.54583        45.86554        -2.54805
O         41.22966        34.32400        -3.02587
H         41.55759        33.58441        -3.59071
O         49.75604        45.56087         2.10812
H         49.79525        46.42255         2.57733
O         44.28204        29.29840        -2.98598
H         43.38572        29.27461        -3.39920
H         26.91268        27.14182         0.55719
H         25.71928        29.00922        -0.83183
H         25.70557        31.36551        -1.13588
H         25.69176        33.29089        -0.46343
H         25.69401        35.67294         0.04256
H         25.73660        37.51393         0.53540
H         25.75442        39.92405         0.81311
H         25.73585        41.81975         0.73671
H         25.72920        44.24736         0.41939
H         26.97993        46.43190         0.66174
H         29.04012        26.02985         1.14825
H         29.10003        47.64030         0.95486
H         32.86884        23.76006         1.18729
H         30.74419        24.88974         1.00214
H         32.76638        49.79240         0.21950
H         30.68805        48.55648         0.36602
H         34.47257        22.88746         1.51060
H         34.36912        50.74718        -0.01040
H         36.56443        21.69332         1.73033
H         36.43464        52.00462         0.13045
H         40.30577        19.52081         1.95443
H         38.21574        20.77348         1.97413
H         40.25410        53.96675        -1.01960
H         38.11803        52.85447        -0.40245
H         42.72092        19.35431         1.31932
H         42.73729        54.04261        -0.93222
H         44.82143        20.45973         0.71094
H         44.86517        52.88357        -0.56823
H         48.61727        22.53648         0.38164
H         46.49612        21.39675         0.68501
H         48.63019        50.73696        -0.00600
H         46.51494        51.92683        -0.40616
H         50.26084        23.39798        -0.28922
H         50.11489        49.75511         1.10376
H         52.34432        24.62937        -0.13927
H         52.23288        48.55368         1.24763
H         56.04062        26.85827         0.28948
H         53.96094        25.60013        -0.03536
H         56.00279        46.41871         1.08678
H         53.87770        47.63747         1.12284
H         57.22755        28.98942         0.57121
H         57.21841        31.43892         0.75131
H         57.15192        33.31145         1.05779
H         57.15751        35.73865         1.02396
H         57.01042        37.64392         1.51740
H         57.17649        40.03140         1.10882
H         57.31574        41.89249         0.39086
H         57.25641        44.33557         0.79875
