         424
 CSIRO Nanostructure Databank - Neutral Graphene Oxide Data Set
C          1.22512         3.44255         0.14639
C          0.00879         4.10713         0.01878
C          1.17007         6.24292        -0.30760
C         -0.03007         5.48248        -0.20068
C          1.14419         7.66980        -0.47587
C         -0.06076         8.40065        -0.64548
C          1.16917        10.47446        -1.30134
C         -0.08247         9.74493        -0.90603
C          1.12742        11.98051        -1.15157
C         -0.00757        12.70211        -0.87673
C          1.15303        14.87407        -1.04736
C         -0.02130        14.11965        -0.85842
C          1.16711        16.31885        -1.03434
C         -0.03708        17.06582        -0.93015
C          1.17951        19.18091        -1.06791
C         -0.03504        18.44047        -0.95973
C          1.18801        20.60676        -1.12856
C         -0.04636        21.36482        -1.13591
C          1.15870        23.51557        -1.55247
C         -0.07833        22.70441        -1.29830
C          1.15589        24.87468        -0.87263
C         -0.01779        25.47827        -0.39475
C          1.20465        27.49741         0.19548
C          0.00119        26.76951         0.12451
C          1.24218        28.86545         0.71040
C          0.25215        29.39376         1.51996
C          1.38165        31.58663         1.69082
C          0.30802        30.72819         1.97140
C          1.45638        32.89771         2.30311
C          0.57976        33.32051         3.30583
C          1.74812        35.45039         3.60614
C          0.67098        34.59597         3.88611
C          1.86934        36.74937         4.21866
C          3.69100         3.48039         0.18085
C          2.44826         4.15754         0.02747
C          3.69775         6.25064        -0.60355
C          2.41385         5.55995        -0.21644
C          3.68890         7.74073        -0.39526
C          2.38792         8.45599        -0.15199
C          3.58531        10.58277        -0.58437
C          2.41727         9.87797        -0.66532
C          3.57350        12.09619        -0.59739
C          2.42822        12.68882        -1.44148
C          3.59466        14.88288        -1.31971
C          2.38756        14.18555        -1.24470
C          3.63076        16.30587        -1.26397
C          2.40141        17.02492        -1.14553
C          3.64950        19.16838        -1.17700
C          2.41132        18.45924        -1.13492
C          3.65824        20.59476        -1.16078
C          2.42082        21.31166        -1.18834
C          3.64084        23.43867        -1.22444
C          2.43643        22.74569        -1.26793
C          3.61668        24.94668        -1.39267
C          2.37534        25.57428        -0.78217
C          3.69716        27.58134         0.01795
C          2.39657        26.87732        -0.25834
C          3.63879        29.07776        -0.19145
C          2.34892        29.74808         0.30640
C          3.65393        31.82653         0.66968
C          2.46384        31.10466         0.86397
C          3.69986        33.26505         1.02713
C          2.51836        33.82239         1.88564
C          3.95797        35.75036         2.56036
C          2.75719        35.02912         2.68812
C          4.09042        37.03961         3.22793
C          2.96305        37.52882         3.99088
C          6.13089         3.53983         0.56080
C          4.92010         4.18888         0.22894
C          6.11801         6.33347         0.08857
C          4.92993         5.59688        -0.03229
C          6.13531         7.75261        -0.18241
C          4.86932         8.44490        -0.35604
C          6.05825        10.60926        -0.52607
C          4.86974         9.91192        -0.40138
C          6.07899        12.03586        -0.83242
C          4.88746        12.71471        -0.99726
C          6.16197        14.85630        -1.53802
C          4.85028        14.10622        -1.47494
C          6.11874        16.33011        -1.39551
C          4.88185        17.02128        -1.30501
C          6.12529        19.15820        -1.17348
C          4.88752        18.44805        -1.22849
C          6.13410        20.59950        -1.13102
C          4.90039        21.31040        -1.15433
C          6.12848        23.46118        -1.16951
C          4.88969        22.74133        -1.16832
C          6.12658        24.89136        -1.08572
C          4.90159        25.60957        -0.96220
C          6.12756        27.70030        -0.56708
C          4.91398        26.95077        -0.59673
C          6.13449        29.12057        -0.35583
C          4.89526        29.83007        -0.11702
C          6.07071        32.01284         0.01481
C          4.84528        31.19987         0.17416
C          6.17955        33.33864         0.64320
C          4.98656        33.96773         1.14860
C          6.37798        35.83549         1.96436
C          5.05373        35.19934         1.82603
C          6.47662        37.22415         2.59612
C          5.24335        37.79420         3.13469
C          8.56291         3.63181         0.99601
C          7.33878         4.26634         0.68247
C          8.52387         6.44602         0.64972
C          7.33072         5.68455         0.46577
C          8.53465         7.85466         0.31909
C          7.33353         8.46903        -0.12662
C          8.58892        10.65076        -0.37694
C          7.35712         9.85430        -0.71883
C          8.58476        12.04779        -0.62570
C          7.35745        12.73371        -0.92736
C          8.61858        14.83211        -1.13821
C          7.39284        14.12218        -1.16184
C          8.60215        16.27127        -1.46777
C          7.33323        17.03571        -1.31661
C          8.61638        19.15212        -0.80986
C          7.34412        18.43402        -1.17427
C          8.60794        20.62593        -1.09750
C          7.37979        21.31509        -1.13601
C          8.59725        23.47608        -1.13912
C          7.37226        22.76054        -1.16731
C          8.59330        24.89538        -1.05306
C          7.35385        25.60207        -0.99536
C          8.57616        27.73882        -0.86050
C          7.34946        27.01866        -0.82337
C          8.59416        29.14355        -0.62601
C          7.36600        29.81617        -0.41237
C          8.65478        31.94887         0.00635
C          7.38152        31.28540        -0.31783
C          8.64820        33.28619         0.40945
C          7.43106        33.97531         0.68566
C          8.76766        36.06376         1.28400
C          7.43014        35.46982         0.94578
C          8.83518        37.38986         1.80086
C          7.64485        38.02259         2.27056
C         10.97907         3.73536         1.44153
C          9.74057         4.38472         1.19785
C         10.84676         6.64642         1.58598
C          9.69591         5.81127         1.09263
C         10.93446         8.00168         0.92012
C          9.75025         8.59555         0.39032
C         11.00084        10.71855         0.09629
C          9.76678         9.99108         0.02281
C         11.02984        12.09750        -0.25084
C          9.81661        12.77596        -0.57675
C         11.10016        14.89325        -0.85458
C          9.83862        14.17339        -0.87148
C         11.13799        16.28577        -1.07075
C          9.90835        17.01469        -1.40365
C         11.09367        19.16631        -1.20355
C          9.88918        18.46773        -1.21527
C         11.07161        20.60649        -1.23032
C          9.85922        21.30918        -1.17924
C         11.06451        23.45782        -1.08520
C          9.87353        22.77443        -1.17008
C         11.14332        24.94827        -0.90629
C          9.81265        25.63690        -1.05637
C         11.01688        27.79839        -1.37728
C          9.78935        27.02597        -1.08078
C         11.07432        29.20838        -0.94610
C          9.85131        29.86569        -0.59660
C         11.13324        31.93517        -0.22437
C          9.88008        31.22790        -0.22037
C         11.17424        33.29910         0.14776
C          9.96240        33.93125         0.80032
C         11.26863        36.04627         0.93870
C          9.93737        35.44636         0.57992
C         11.34288        37.25592         1.82500
C         10.08027        38.06338         1.85238
C         13.40727         3.77266         1.69691
C         12.18633         4.44998         1.63433
C         13.31207         6.63435         1.85064
C         12.16745         5.90974         1.65852
C         13.29800         8.14951         1.77175
C         12.13186         8.71149         0.98011
C         13.44493        10.75855         0.40240
C         12.19913        10.05881         0.50185
C         13.48977        12.08503        -0.01369
C         12.27934        12.80129        -0.27780
C         13.57386        14.90586        -0.55291
C         12.31052        14.19081        -0.57200
C         13.57412        16.33912        -0.73463
C         12.35629        17.03086        -0.96773
C         13.57513        19.19230        -1.02170
C         12.34677        18.45327        -1.11463
C         13.59853        20.59436        -1.26226
C         12.33648        21.34735        -1.58428
C         13.58154        23.51627        -1.44695
C         12.38245        22.73304        -0.93542
C         13.55242        24.85454        -1.64264
C         12.21392        25.53806        -1.85332
C         13.56385        27.77059        -1.54741
C         12.27194        27.07013        -1.75541
C         13.53764        29.19142        -1.32667
C         12.28996        29.89349        -1.03086
C         13.51706        32.04295        -0.81134
C         12.32373        31.29566        -0.69189
C         13.55982        33.40138        -0.43857
C         12.36862        34.02876         0.04349
C         13.67946        36.10490         0.50968
C         12.42002        35.40444         0.52198
C         13.71008        37.47530         1.02811
C         12.59839        38.04030         1.60377
C         15.90690         3.80312         2.15630
C         14.59460         4.43890         2.20416
C         15.83292         6.76413         2.56861
C         14.53443         5.97466         2.35599
C         15.87068         8.10772         1.87767
C         14.63992         8.66565         1.28056
C         15.97107        10.79482         0.74935
C         14.71231        10.01766         0.62738
C         15.99817        12.13039         0.36217
C         14.81301        12.71686        -0.37932
C         16.08950        14.92651        -0.54394
C         14.77122        14.22342        -0.35766
C         15.99226        16.40750        -0.33186
C         14.80132        17.07511        -0.59203
C         16.02294        19.23708        -0.74039
C         14.78758        18.51631        -0.72896
C         16.02554        20.61986        -1.07345
C         14.81591        21.29698        -1.30012
C         16.08887        23.49947        -1.43295
C         14.83672        22.73367        -1.78966
C         16.06373        24.91270        -1.50886
C         14.81599        25.60869        -2.02603
C         16.00092        27.79111        -1.48591
C         14.77182        27.07917        -1.63843
C         15.98434        29.22248        -1.42305
C         14.74379        29.91187        -1.35798
C         16.00723        32.12185        -1.25511
C         14.69492        31.41750        -1.50953
C         16.00028        33.53256        -0.96426
C         14.79017        34.16219        -0.52715
C         16.00697        36.38126        -0.37972
C         14.80605        35.51787        -0.06779
C         16.10532        37.62884         0.46281
C         14.95989        38.18475         1.00892
C         18.36247         3.85197         2.17889
C         17.09528         4.53984         2.22822
C         18.30854         6.67711         2.21694
C         17.09044         5.96646         2.27414
C         18.31030         8.11202         2.14168
C         17.06128         8.79360         1.81622
C         18.30959        10.90527         1.48487
C         17.12526        10.17613         1.34082
C         18.37294        12.26358         1.04842
C         17.19704        12.90305         0.51975
C         18.44306        15.01572         0.34482
C         17.24292        14.27860         0.19012
C         18.46883        16.43334         0.14119
C         17.17015        17.19006         0.16079
C         18.48337        19.26565        -0.43191
C         17.24383        18.56530        -0.44269
C         18.52930        20.65201        -0.76384
C         17.32752        21.31175        -1.39158
C         18.49388        23.52949        -1.01399
C         17.27790        22.80940        -1.18154
C         18.48453        24.95418        -1.11011
C         17.25450        25.64759        -1.33862
C         18.46454        27.81955        -1.33655
C         17.24574        27.09330        -1.41192
C         18.45885        29.25600        -1.41244
C         17.21681        29.95665        -1.43443
C         18.46245        32.11453        -1.61466
C         17.19187        31.39638        -1.41261
C         18.48010        33.64285        -1.37461
C         17.23527        34.27335        -0.91021
C         18.53860        36.28978        -0.33026
C         17.29680        35.60173        -0.47094
C         18.55485        37.64119         0.17323
C         17.35704        38.26334         0.58783
C         19.54338         4.53944         2.20705
C         20.75603         6.70550         2.27325
C         19.55338         5.97114         2.22607
C         20.73513         8.09359         2.30255
C         19.52158         8.81106         2.20517
C         20.77524        10.99783         1.93697
C         19.47195        10.32369         2.27185
C         20.81633        12.24342         1.42579
C         19.61167        12.96713         1.06153
C         20.87641        15.08448         0.68691
C         19.65798        14.33647         0.70025
C         20.88845        16.42398         0.39898
C         19.67223        17.14498         0.17477
C         20.85610        19.34871         0.13474
C         19.68223        18.58936        -0.02818
C         20.86558        20.71544        -0.09792
C         19.71138        21.38668        -0.57501
C         20.91371        23.56904        -0.74605
C         19.72535        22.83181        -0.79623
C         20.91083        24.95668        -0.88011
C         19.71485        25.67516        -1.04936
C         20.90474        27.85147        -1.16875
C         19.70726        27.11931        -1.18910
C         20.90578        29.23606        -1.28409
C         19.70933        29.96262        -1.40453
C         20.91368        32.14764        -1.53535
C         19.73673        31.40396        -1.52014
C         20.93153        33.54521        -1.34076
C         19.77459        34.27995        -1.10467
C         20.98692        36.35079        -0.42586
C         19.78487        35.64236        -0.61197
C         20.98720        37.67503         0.03274
C         19.79458        38.31328         0.33657
O          2.62309        34.04308         0.44042
O          6.85958        35.93574         3.31581
O          6.60248        31.96945        -1.35210
O         11.44642        27.67448        -2.80776
O          9.30698        16.59787        -2.71734
O         18.38130        33.07230        -2.72005
O         14.76572         8.77909        -0.17829
O          2.67674        29.59486        -1.12626
O         14.28355         5.12718         3.50418
O          5.53072        14.33780        -2.75896
O         15.90056         7.05551         3.99988
H         15.50890         6.27809         4.46178
O         16.89896        17.42476         1.61694
H         17.64968        17.95330         1.96455
O         14.85240        22.64303        -3.26335
H         13.98984        22.21333        -3.51319
O         11.44399        36.68927         3.20657
H         10.76333        35.98135         3.27083
O         11.81724        25.18043        -3.19446
H         11.51880        26.01276        -3.63580
O         10.54112         6.95680         3.00753
H         10.45024         6.09875         3.47597
O          3.30889        12.50574         0.78001
H          4.03736        12.16710         1.34135
O         15.77796        36.87595        -1.75034
H         15.75682        36.09482        -2.34415
O         19.20189        10.64129         3.68234
H         19.12667        11.61641         3.75247
O          1.32131        10.19030        -2.73640
H          2.02183        10.80783        -3.07042
O         10.11765        33.75556         2.24251
H         10.16338        32.79419         2.42800
O          3.54148        25.20642        -2.82901
H          2.68287        24.82141        -3.14360
O         13.12506         8.63805         3.13057
H         12.27763         8.25950         3.46129
O          1.16383        23.80993        -3.00378
H          1.17549        22.94899        -3.47414
O          9.73848        35.64802        -0.86382
H          9.93965        36.58712        -1.06295
O         11.61600        25.21674         0.46120
H         10.86756        25.03998         1.07042
O          2.31170         8.59772         1.32802
H          3.08342         9.13624         1.60696
O         15.05106        12.35158        -1.80456
H         14.21108        12.50596        -2.28880
O         17.47490        21.14886        -2.85025
H         16.69486        21.59072        -3.26443
O          2.80517        12.43510        -2.83602
H          2.34104        13.08649        -3.40276
O         12.60195        22.54870         0.49279
H         12.55309        23.44858         0.89287
O          3.91826        27.45462         1.47333
H          4.00306        26.49991         1.68139
O          7.01308        36.08670        -0.31813
H          7.69701        35.83626        -0.98360
O         14.43654        31.64499        -2.94718
H         15.19504        31.27133        -3.44504
O         12.32387        21.55784        -3.03861
H         11.56240        22.14279        -3.24695
O          3.80090         6.06275        -2.07508
H          3.83500         5.09543        -2.23725
O          8.65882        19.04611         0.68940
H          9.37649        19.64270         0.99564
O         14.91382        25.55882        -3.47973
H         14.90288        24.60084        -3.72505
O          7.45054         9.64901        -2.17732
H          6.66502         9.12768        -2.45060
O         16.41950        14.74363        -1.98078
H         16.19391        13.80201        -2.19489
H          1.25127         2.35984         0.33426
H         -0.93219         3.54567         0.10471
H         -1.00642         5.97968        -0.26809
H         -1.02358         7.87197        -0.57821
H         -1.05400        10.23963        -1.04669
H         -0.95771        12.18489        -0.67919
H         -0.98006        14.62012        -0.67226
H         -0.99882        16.54317        -0.84225
H         -0.99676        18.96466        -0.89140
H         -0.99981        20.83196        -1.01894
H         -1.05235        23.21004        -1.35831
H         -0.97799        24.94836        -0.44816
H         -0.94046        27.22958         0.45448
H         -0.59991        28.77230         1.82959
H         -0.52288        31.08597         2.59360
H         -0.23323        32.66168         3.64005
H         -0.08982        34.91022         4.61461
H          1.05241        37.10517         4.86312
H          3.68783         2.39771         0.37317
H          3.04270        38.52318         4.45430
H          6.13005         2.45603         0.74785
H          5.26494        38.81515         3.54492
H          8.59822         2.53736         1.09749
H          7.64773        39.09916         2.49518
H         11.00776         2.63618         1.45271
H         10.11823        39.07845         2.27648
H         13.45666         2.70304         1.44738
H         12.65818        39.05927         2.01572
H         15.95501         2.72110         1.96401
H         15.02012        39.15588         1.52406
H         18.35697         2.75280         2.14695
H         17.41245        39.24027         1.09236
H         20.50248         4.00123         2.20358
H         21.71552         6.16961         2.30930
H         21.69172         8.62696         2.37713
H         21.71739        10.51684         2.23332
H         21.79289        12.72317         1.27327
H         21.82938        14.58522         0.90543
H         21.85073        16.95215         0.37886
H         21.78354        18.86993         0.47548
H         21.79456        21.27173         0.08254
H         21.87857        23.06246        -0.61285
H         21.87542        25.47905        -0.84514
H         21.86994        27.34025        -1.06367
H         21.87023        29.75959        -1.26943
H         21.88546        31.63806        -1.58164
H         21.91469        34.02682        -1.24968
H         21.94886        35.87260        -0.65311
H         21.94237        38.20342         0.15916
H         19.79647        39.34570         0.71417
