         232
 CSIRO Nanostructure Databank - Neutral Graphene Oxide Data Set
C        -11.26146         0.59582         0.26709
C        -10.06365         1.40137         0.03832
C         -8.82201         0.65879        -0.28902
C         -7.52600         1.39616        -0.42639
C         -6.25873         0.64841        -0.06678
C         -5.04053         1.43023        -0.50924
C         -3.84512         0.66518        -1.01557
C         -2.51859         1.39491        -0.85977
C         -1.33667         0.73566        -0.99169
C         -0.10175         1.49878        -1.37488
C          1.17843         0.78085        -1.71638
C          2.47133         1.56171        -1.72175
C          3.80118         0.83117        -2.02087
C          5.06157         1.53463        -1.42882
C          6.26159         0.75927        -0.93083
C          7.40637         1.48800        -0.31235
C          8.55227         0.80015         0.06707
C          9.78589         1.49792         0.30926
C         10.97879         0.76468         0.51265
C        -10.04667         2.76183         0.03381
C         -8.84003         3.56281        -0.42225
C         -7.52872         2.84267        -0.23878
C         -6.30550         3.52282        -0.12247
C         -5.04450         2.80063        -0.39549
C         -3.81044         3.56156        -0.48821
C         -2.55669         2.90142        -1.03691
C         -1.27480         3.54124        -0.55845
C         -0.03886         2.89781        -0.86447
C          1.19095         3.48508        -0.55741
C          2.45982         2.94665        -1.10494
C          3.76134         3.57115        -0.75098
C          4.98298         2.95859        -0.98170
C          6.23254         3.63171        -0.67288
C          7.40506         2.92776        -0.37837
C          8.62477         3.63225        -0.02717
C          9.77855         2.91859         0.27450
C         -8.78135         4.93743         0.16042
C         -7.55446         5.59873         0.36208
C         -6.30018         4.90898         0.11419
C         -5.05717         5.72181        -0.09348
C         -3.78390         4.90442        -0.14763
C         -2.53814         5.57378         0.10573
C         -1.28739         4.85382        -0.00363
C         -0.06201         5.46970         0.35849
C          1.21103         4.66200         0.38768
C          2.41871         5.56325         0.22247
C          3.69497         4.98543        -0.30756
C          4.99391         5.62653         0.06338
C          6.22740         5.14711        -0.67337
C          7.46625         5.79866        -0.08447
C          8.61180         5.07032         0.08856
C         -7.51940         6.92214         0.82953
C         -6.26343         7.60129         1.27267
C         -4.98471         6.96347         0.76502
C         -3.79746         7.59173         0.98381
C         -2.55216         6.85943         0.71549
C         -1.33375         7.31775         1.23393
C         -0.05497         6.80500         0.86325
C          1.11209         7.61125         1.01152
C          2.40762         6.88568         0.95379
C          3.69149         7.63923         1.04427
C          4.99398         6.96757         0.70644
C          6.21871         7.80463         0.62699
C          7.40111         7.20088         0.28140
C         -6.23652         9.07936         0.94516
C         -5.08534         9.74442         1.07316
C         -3.81252         9.05236         1.51932
C         -2.61519         9.88377         1.08913
C         -1.34714         9.48041         1.44522
C         -0.04919         9.90888         1.09686
C          1.12618         9.06598         1.14889
C          2.35171         9.74939         1.15660
C          3.65577         9.12535         0.77073
C          4.91984         9.79772         1.25447
C          6.11463         9.18166         1.08802
C        -11.25209        -0.75938         0.30789
C         -9.99293        -1.54228         0.31544
C         -8.72636        -0.78487         0.07586
C         -7.51185        -1.48721        -0.40621
C         -6.31510        -0.80825        -0.50252
C         -5.08525        -1.52899        -0.69201
C         -3.81445        -0.74074        -0.38616
C         -2.56416        -1.50674        -0.77083
C         -1.28069        -0.75819        -1.02519
C          0.06838        -1.39274        -0.97330
C          1.28698        -0.65628        -1.32472
C          2.58333        -1.45666        -1.42043
C          3.84787        -0.73606        -1.84347
C          5.10672        -1.47021        -1.44203
C          6.04177        -0.69503        -0.52777
C          7.32281        -1.44288        -0.14132
C          8.55830        -0.67410         0.18210
C          9.85267        -1.39355         0.26317
C         11.01532        -0.63135         0.46691
C         -9.96072        -3.00785         0.11705
C         -8.83348        -3.66339        -0.30426
C         -7.62580        -2.91025        -0.74667
C         -6.33362        -3.66703        -1.05048
C         -5.07801        -2.91043        -0.86733
C         -3.84952        -3.65666        -0.67779
C         -2.66310        -2.95475        -0.43426
C         -1.54037        -3.67045        -0.00035
C          0.31298        -2.60064        -0.35711
C          1.37709        -3.52625        -0.68054
C          2.51122        -2.94006        -1.25637
C          3.74883        -3.72646        -1.39345
C          5.07342        -2.98449        -1.28692
C          6.21858        -3.66176        -0.62831
C          7.51175        -2.87808        -0.62029
C          8.64834        -3.54225         0.13132
C          9.81943        -2.80315         0.35841
C         -8.74002        -5.10502        -0.23525
C         -7.57059        -5.81153        -0.40408
C         -6.32204        -5.20442        -1.02941
C         -5.05219        -5.81900        -0.47338
C         -3.83918        -5.08199        -0.49314
C         -2.60392        -5.76507        -0.25204
C         -1.36424        -5.03890        -0.15151
C         -0.03842        -5.64420        -0.20135
C          1.17098        -4.98832        -0.50393
C          2.37528        -5.83589        -0.77700
C          3.71296        -5.16802        -0.97530
C          4.95670        -5.80315        -0.39879
C          6.16453        -4.96299        -0.18833
C          7.31733        -5.58913         0.44212
C          8.52254        -4.88187         0.54906
C         -7.51458        -7.21078        -0.07778
C         -6.31294        -7.88269         0.06776
C         -5.05484        -7.16286        -0.07122
C         -3.83316        -7.80811         0.30088
C         -2.62577        -7.11778         0.15554
C         -1.34956        -7.67776         0.64284
C         -0.10812        -7.12749        -0.00981
C          1.12783        -7.97280         0.02766
C          2.42015        -7.30290        -0.36776
C          3.68493        -7.86648         0.17265
C          4.83585        -7.11944         0.27952
C          6.02030        -7.64404         0.93405
C          7.19132        -6.90555         0.98418
C         -6.25989        -9.26731         0.47894
C         -5.08910        -9.88513         0.80439
C         -3.81960        -9.18551         0.77291
C         -2.63963        -9.80228         1.13463
C         -1.35059        -9.09559         1.14676
C         -0.07423        -9.81223         1.23217
C          1.14557        -9.22595         0.84041
C          2.37300        -9.80928         1.13449
C          3.67431        -9.33882         0.53869
C          4.84496        -9.73795         1.39584
C          5.93294        -8.95558         1.54829
O         -8.26196         0.93224        -1.62099
O          6.10050         5.59354        -2.04911
H          6.73533         5.09026        -2.59985
O          3.10698         7.08762         2.24808
O          4.60379        -3.56158        -2.54915
O          3.69950         9.20247        -0.70194
H          3.66440        10.14823        -0.95735
O         -6.23083         0.65121         1.39180
H         -5.35462         0.27962         1.65873
O         -4.03700         0.54304        -2.45141
H         -3.34944        -0.09269        -2.78044
O          0.26082         1.16552        -2.76631
O          2.21222        -0.75212        -0.16333
O         -9.10183        -1.10893         1.44775
O          0.22851        -8.01161        -1.13093
O         -9.00839         3.68494        -1.89756
H         -8.89881         2.77090        -2.25577
O         -2.65483         3.11106        -2.48586
H         -3.22499         2.38880        -2.84365
O          2.35377         2.72583        -2.56481
O         -7.19118        -3.18571        -2.12996
O          4.59892        -5.94654        -1.81853
O         -2.11817        -1.30062        -2.15550
O         -1.32661        -7.87097         2.08460
O          2.29827        -6.90771        -1.77094
O         -5.20020         6.26814        -1.46381
H         -5.20953         5.50910        -2.08635
O         -6.34795        -5.63063        -2.42264
H         -6.91206        -4.98062        -2.90242
O          5.20380         5.73466         1.49461
O          7.63461        -1.21270         1.25737
O          2.80270         5.78716        -1.16598
O         -3.75711        -0.54468         1.05894
H         -3.65586        -1.42422         1.48207
O          6.18112         1.18653        -2.32097
O         -6.24642         7.48533         2.73462
H         -5.48218         8.03206         3.05490
O          3.82201       -10.06485        -0.73540
H          3.20102        -9.66107        -1.37998
O          4.81845        -1.18444        -2.83124
O         -3.86443         8.97765         2.97631
H         -2.98501         8.63821         3.26560
O         -0.55460        -2.96128         0.66840
O          3.89842         1.01781        -3.44327
H          4.76828         0.65484        -3.72661
O         -1.33713         8.28005         2.22993
O          1.33522         4.09725         1.74196
H          0.48760         3.65962         1.96746
O          7.91450        -2.74206        -2.01654
H          7.73407        -3.58835        -2.47804
O          5.24710        -0.60537         0.69281
H          5.88678        -0.60411         1.44748
H         11.97720        -1.14923         0.59376
H         11.91389         1.32033         0.67369
H         10.70734         3.46262         0.50209
H          9.52062         5.56295         0.46816
H          8.34552         7.76276         0.35913
H          7.04867         9.71576         1.32271
H          4.87350        10.83391         1.62295
H          2.32326        10.85004         1.20931
H          0.09359        10.94767         0.76510
H         -2.76715        10.77343         0.46308
H         -5.03984        10.82755         0.88203
H         -7.16566         9.58885         0.64842
H         -8.47169         7.43931         1.02672
H         -9.71971         5.46528         0.38552
H        -10.97407         3.31739         0.24402
H        -12.21970         1.13180         0.34187
H        -12.19980        -1.30963         0.40808
H        -10.84440        -3.59378         0.41476
H         -9.63094        -5.64405         0.12532
H         -8.45627        -7.73008         0.15983
H         -7.20752        -9.82254         0.54378
H         -5.09369       -10.93734         1.12531
H         -2.64733       -10.87174         1.39654
H         -0.05874       -10.80440         1.70734
H          2.38547       -10.75177         1.70283
H          4.81102       -10.73436         1.86136
H          6.79010        -9.30278         2.14506
H          8.07223        -7.34268         1.47851
H          9.37724        -5.36224         1.04993
H         10.72175        -3.32966         0.70769
