         617
 CSIRO Nanostructure Databank - Neutral Graphene Oxide Data Set
C          5.93385        31.89743         1.21009
C          5.92189        33.26918         1.19690
C          8.39158        27.59190         0.78006
C          8.34840        28.97364         0.80216
C          7.13785        29.73417         0.98693
C          8.41936        31.85700         1.08580
C          7.13692        31.11488         1.06791
C          8.41319        33.37311         1.10349
C          7.11289        34.07132         1.04409
C          8.31456        36.19158         0.64515
C          7.09871        35.43525         0.85565
C          8.30185        37.58176         0.58103
C         10.90697        23.24107         0.24836
C         10.87659        24.66956         0.55870
C          9.62501        25.46106         0.53033
C         10.93505        27.56997         0.80145
C          9.61827        26.82574         0.64232
C         10.85003        28.98598         0.28965
C          9.57414        29.73013         0.42966
C         10.81242        31.90505         0.46299
C          9.64484        31.19442         0.62328
C         10.82016        33.35648         0.42609
C          9.61968        34.07601         0.63555
C         10.75174        36.18988         0.13626
C          9.56274        35.47784         0.46604
C         10.71058        37.61395         0.06675
C          9.49860        38.32652         0.33026
C         10.75976        40.45221         0.14350
C          9.54214        39.73136         0.31077
C         10.74585        41.85677         0.35870
C         13.32599        18.99092        -0.09145
C         13.29011        20.39240        -0.13041
C         12.10934        21.12710         0.00591
C         13.36726        23.27521        -0.14119
C         12.10485        22.55548         0.07802
C         13.37305        24.69585        -0.13831
C         12.20047        25.41704         0.37843
C         13.25542        27.56625        -0.19728
C         12.14188        26.86827         0.21546
C         13.24613        29.03159        -0.17891
C         12.11855        29.73796         0.17671
C         13.21222        31.95692        -0.31931
C         12.15900        31.21551         0.46497
C         13.21033        33.34496        -0.35850
C         12.00434        34.05958         0.04079
C         13.14701        36.18431        -0.51235
C         11.97474        35.46607        -0.07034
C         12.95797        37.53568        -0.80127
C         11.88349        38.33966        -0.30620
C         13.27185        40.50999        -0.21547
C         11.97138        39.75296        -0.18825
C         13.23229        41.96394         0.20291
C         11.92922        42.62794         0.47733
C         13.13109        44.73819         1.22625
C         11.90374        43.95848         0.84777
C         13.31794        46.03212         0.46988
C         15.76948        14.70821         0.10769
C         15.68605        16.07055        -0.34876
C         14.55766        16.82535        -0.11611
C         15.65367        18.90971        -0.85339
C         14.52778        18.25360        -0.34796
C         15.61553        20.36912        -1.04314
C         14.62077        21.10899        -0.17850
C         15.72955        23.27750        -0.85614
C         14.54122        22.58076        -0.47928
C         15.71885        24.70766        -0.85517
C         14.52075        25.41855        -0.51677
C         15.66018        27.59093        -0.77583
C         14.49172        26.86998        -0.52528
C         15.63486        29.04928        -0.79475
C         14.43683        29.73700        -0.56351
C         15.68586        31.97074        -0.99038
C         14.33531        31.17419        -0.81452
C         15.66175        33.39971        -0.71193
C         14.43128        34.10137        -0.64020
C         15.70681        36.23555        -0.55426
C         14.43832        35.52837        -0.64019
C         15.82544        37.66117        -0.36118
C         14.80241        38.57897        -0.67033
C         15.82878        40.50835         0.42985
C         14.57998        39.80559        -0.04644
C         15.59973        41.79116         1.18770
C         14.43137        42.62294         0.79949
C         15.64469        44.68288         1.48350
C         14.39994        43.93057         1.15369
C         15.76421        46.01875         0.84372
C         14.53249        46.63090         0.34306
C         15.85350        48.71336        -0.27579
C         14.55551        47.94864        -0.40953
C         16.00818        49.89453        -1.13121
C         18.14348        10.52404         1.56144
C         17.80908        11.65185         0.75750
C         16.87558        12.67769         0.88201
C         18.26488        14.72184        -0.00662
C         16.93059        13.94897         0.17421
C         18.17023        16.00671        -0.86474
C         16.85594        16.69325        -1.02460
C         18.11956        18.93543        -1.39121
C         16.79608        18.15737        -1.48681
C         18.11756        20.30247        -1.53986
C         16.86409        21.10295        -1.47104
C         18.11218        23.29033        -1.49007
C         16.93301        22.57750        -1.23056
C         18.11559        24.71680        -1.40282
C         16.92785        25.42396        -1.10761
C         18.09320        27.58989        -1.02226
C         16.91024        26.88027        -0.99903
C         18.11096        29.05348        -0.98688
C         16.85128        29.79702        -0.88572
C         18.10582        31.90689        -0.45137
C         16.90387        31.19300        -0.79511
C         18.10843        33.28531        -0.35560
C         16.89836        34.06820        -0.50710
C         18.21942        36.15718        -0.26920
C         16.90929        35.47271        -0.40698
C         18.24418        37.60252         0.27479
C         16.90317        38.18731         0.52482
C         18.07527        40.15787         1.74505
C         16.82544        39.56819         1.10147
C         18.07958        41.65022         2.03016
C         16.79763        42.42515         1.83036
C         18.21669        44.56655         1.54907
C         16.89903        43.93135         1.83942
C         18.24894        45.91686         1.06504
C         17.01217        46.60517         0.71473
C         18.39527        48.52775        -0.23222
C         17.09791        48.01313         0.23919
C         18.43591        49.70027        -0.97407
C         17.25078        50.44009        -1.37265
C         18.61622        52.29440        -2.35472
C         17.39539        51.71854        -2.03754
C         18.64300        53.73039        -2.62879
C         20.93860         6.67048         2.66914
C         20.84761         7.96522         2.16661
C         19.61091         8.65648         2.10580
C         20.70686        10.73832         1.31975
C         19.44072         9.94145         1.54388
C         20.75501        12.05913         0.64379
C         19.70074        12.53496        -0.05991
C         20.74259        14.73429        -0.55631
C         19.50952        13.93276        -0.48446
C         20.65606        16.21454        -0.55514
C         19.39055        16.86313        -0.92406
C         20.65009        18.93968        -1.39732
C         19.37877        18.20720        -1.25140
C         20.64598        20.33103        -1.65303
C         19.37224        21.04491        -1.83314
C         20.68680        23.31057        -1.90454
C         19.35739        22.56356        -1.92331
C         20.71083        24.77329        -1.63392
C         19.37695        25.47001        -1.59989
C         20.60877        27.48589        -0.62456
C         19.38365        26.92647        -1.28377
C         20.56820        28.93592        -0.25380
C         19.37559        29.75094        -0.62268
C         20.63736        31.79651        -0.19003
C         19.30886        31.11443         0.02780
C         20.61048        33.22767        -0.39318
C         19.37930        33.93643         0.13666
C         20.66684        36.10879         0.14905
C         19.44599        35.41956        -0.05053
C         20.66467        37.48064         0.65945
C         19.47327        38.13620         0.87294
C         20.69219        40.12280         1.89738
C         19.39086        39.39972         1.65802
C         20.67233        41.62979         2.09182
C         19.37843        42.40741         2.12852
C         20.67585        44.50902         1.67208
C         19.41046        43.85397         1.75568
C         20.72258        45.88747         1.24489
C         19.50616        46.54746         0.85121
C         20.85362        48.37954        -0.10964
C         19.60187        47.82056         0.15906
C         20.99736        49.49085        -1.06213
C         19.70069        50.16240        -1.54616
C         21.09303        51.87222        -2.51501
C         19.81495        51.49540        -2.14196
C         21.08648        54.05061        -2.79818
C         19.73277        54.55917        -2.70097
C         20.81030        56.65676        -1.82509
C         19.62421        56.06398        -2.58327
C         20.60763        57.71214        -1.01179
C         23.46089         3.95361         3.28671
C         22.23685         4.63717         3.20432
C         23.40608         6.60956         2.34495
C         22.18243         5.96064         2.73380
C         23.38736         7.95370         1.89420
C         22.06218         8.57385         1.49608
C         23.33364        10.81785         1.30470
C         22.03486        10.09873         1.59780
C         23.32664        12.12866         0.63773
C         22.03479        12.84268         0.63814
C         23.27842        14.71162        -0.61011
C         22.03087        14.18299        -0.03383
C         23.15356        16.03838        -1.26462
C         21.94954        16.87199        -0.93107
C         23.18863        18.90038        -1.43378
C         21.87302        18.23267        -1.44483
C         23.18870        20.37232        -1.36116
C         21.92536        21.05444        -1.74687
C         23.21401        23.25081        -1.30619
C         21.98523        22.56319        -1.78681
C         23.15881        24.67506        -0.97857
C         21.94532        25.41734        -1.08060
C         23.06526        27.40961        -0.13331
C         21.91358        26.76514        -0.66471
C         22.98836        28.84382         0.28610
C         21.82802        29.65608        -0.09034
C         23.11748        31.78175        -0.00150
C         21.84685        31.06371        -0.10715
C         23.14813        33.19982        -0.11639
C         21.93849        34.00416        -0.39677
C         23.16368        36.16821        -0.02461
C         21.90086        35.42893        -0.03028
C         23.17459        37.68858         0.23152
C         21.97311        38.02039         1.20560
C         23.16196        40.20947         1.60397
C         21.96647        39.49214         1.50724
C         23.14778        41.64864         1.82910
C         21.92710        42.35869         1.85734
C         23.14875        44.46459         2.09660
C         21.89127        43.77261         1.86470
C         23.17497        46.00176         1.69584
C         21.97270        46.54123         1.08853
C         23.29580        48.43241         0.19088
C         22.07151        47.79762         0.39119
C         23.36252        49.89078        -0.19185
C         22.22570        50.28956        -1.08858
C         23.49405        52.31986        -1.80499
C         22.29312        51.45913        -1.82732
C         23.46459        53.79457        -2.11751
C         22.18620        54.58430        -2.18820
C         23.31071        56.67353        -1.28189
C         22.20024        56.11791        -2.14532
C         23.16157        58.01683        -0.70636
C         21.71440        58.54465        -0.49092
C         22.59874        60.06419         1.23266
C         21.52071        59.46198         0.61935
C         24.64787         4.57037         2.91924
C         25.85146         6.56383         2.06001
C         24.65193         5.91425         2.44867
C         25.83405         7.89913         1.63835
C         24.58932         8.59426         1.58324
C         25.81058        10.65655         0.67589
C         24.62287        10.04634         1.30348
C         25.76474        11.97553         0.19511
C         24.49787        12.70583         0.15345
C         25.69913        14.56525        -1.11263
C         24.45893        14.01685        -0.49840
C         25.67916        15.95891        -1.71516
C         24.38612        16.71592        -1.78635
C         25.70616        18.92177        -1.60698
C         24.42135        18.22475        -2.02421
C         25.65324        20.34447        -1.39832
C         24.47271        21.09502        -1.46572
C         25.66525        23.19091        -0.92645
C         24.41450        22.52218        -1.23554
C         25.58313        24.57213        -0.37847
C         24.32367        25.34599        -0.50928
C         25.53327        27.36442         0.43153
C         24.29316        26.69954        -0.09359
C         25.52718        28.84562         0.74933
C         24.24986        29.62368         0.61041
C         25.56621        31.73750         0.26546
C         24.30656        31.06690         0.28761
C         25.56311        33.14762         0.17740
C         24.36370        33.86816         0.12358
C         25.57604        35.97493         0.82697
C         24.42532        35.35376         0.10085
C         25.59223        37.42240         1.10014
C         24.44994        38.19245         0.93963
C         25.67180        40.17609         1.76722
C         24.43750        39.54111         1.40094
C         25.61810        41.59199         2.19721
C         24.38627        42.36077         1.94848
C         25.67815        44.48659         2.16206
C         24.42074        43.74881         2.07982
C         25.65570        45.90611         1.80984
C         24.50147        46.53941         1.39280
C         25.83915        48.38660         0.20130
C         24.54197        47.72313         0.50229
C         25.85013        49.74419        -0.41206
C         24.68812        50.38531        -0.75128
C         25.90892        52.49825        -1.24496
C         24.68036        51.73355        -1.34392
C         25.87983        53.87935        -1.19732
C         24.67661        54.60670        -1.63666
C         25.62157        56.62597        -0.44660
C         24.49590        55.99558        -1.13151
C         25.44984        57.86458         0.19791
C         24.20674        58.53278         0.18953
C         23.92871        59.64065         1.00285
C         27.03041         8.59539         1.22146
C         28.31630        10.48128         0.22803
C         27.02132         9.88015         0.72071
C         28.24459        11.96529        -0.04940
C         26.99636        12.63436        -0.20777
C         28.20351        14.63012        -1.01883
C         27.00101        13.96079        -0.73301
C         28.24409        15.98204        -1.64314
C         26.95596        16.75553        -1.86436
C         28.18069        18.97199        -1.50611
C         26.93284        18.24169        -1.66035
C         28.19197        20.33916        -1.22802
C         26.88960        21.00049        -0.84711
C         28.14234        23.21487        -0.87771
C         26.85518        22.50104        -0.95167
C         28.13724        24.63664        -0.42161
C         26.85257        25.26983         0.00627
C         28.04750        27.41109         0.36660
C         26.86666        26.73894         0.20849
C         28.11933        28.86317         0.65477
C         26.81632        29.62196         0.77310
C         28.06577        31.71872         0.28975
C         26.82207        31.04393         0.40179
C         28.09652        33.13502         0.18012
C         26.83421        33.92073        -0.00581
C         28.12303        35.89763         0.88459
C         26.84789        35.17311         0.84158
C         28.14824        37.22334         1.51216
C         26.79919        38.00933         1.70279
C         28.10980        40.06567         2.53784
C         26.85732        39.46159         1.88927
C         28.19729        41.58925         2.26623
C         26.91477        42.34175         2.43927
C         28.22585        44.49668         2.54250
C         26.88640        43.81398         2.30527
C         28.20778        46.00754         2.24364
C         26.92602        46.68508         1.82095
C         28.33395        48.56920         0.69229
C         27.01926        47.96372         1.02280
C         28.38154        49.78063        -0.02648
C         27.18005        50.32715        -0.68404
C         28.40734        52.58067        -0.74088
C         27.19920        51.80452        -1.07766
C         28.28906        53.98130        -0.61534
C         27.04661        54.63209        -0.77365
C         26.88124        55.98305        -0.40871
C         29.43060        12.66245        -0.22348
C         30.67158        14.73382        -0.68821
C         29.44593        14.01876        -0.64927
C         30.74534        16.09607        -1.03528
C         29.53612        16.75372        -1.57791
C         30.71343        18.99109        -1.20569
C         29.48819        18.27534        -1.59934
C         30.68870        20.38610        -1.08135
C         29.42148        21.08123        -1.07105
C         30.63713        23.19882        -0.65900
C         29.41817        22.47029        -0.83117
C         30.66597        24.58574        -0.30168
C         29.40149        25.22746         0.08931
C         30.61291        27.45403         0.25466
C         29.35652        26.70505         0.39940
C         30.58093        28.88967         0.22410
C         29.36152        29.59850         0.32775
C         30.54824        31.75841         0.10767
C         29.33280        31.01578         0.27277
C         30.54512        33.18350         0.07807
C         29.29071        33.86671         0.16709
C         30.47579        36.13565         0.11803
C         29.25636        35.30409         0.38742
C         30.54366        37.42204         0.92821
C         29.40596        37.98685         1.46618
C         30.71402        40.07046         2.02094
C         29.42144        39.30729         2.14833
C         30.67505        41.56441         2.18533
C         29.36125        42.26681         2.07733
C         30.69249        44.47221         1.81820
C         29.33891        43.76465         1.73333
C         30.73796        45.88467         1.79928
C         29.49455        46.68907         1.90201
C         30.74957        48.67029         1.03636
C         29.51363        47.99927         1.19850
C         30.78413        49.91914         0.42575
C         29.60386        50.51293        -0.09643
C         29.59492        51.89757        -0.45316
C         31.92426        16.84165        -0.92048
C         33.14565        18.98216        -0.90163
C         31.94495        18.26537        -1.04868
C         33.18100        20.40386        -0.94715
C         31.91823        21.12260        -0.99129
C         33.10347        23.31571        -0.94905
C         31.87981        22.51667        -0.83961
C         33.13453        24.69715        -0.44924
C         31.86272        25.32395        -0.13458
C         33.07748        27.47990         0.31350
C         31.81409        26.73302         0.14209
C         33.04060        28.94151         0.13932
C         31.80613        29.63204         0.09841
C         33.02086        31.76692        -0.16830
C         31.79702        31.05483         0.03099
C         33.02136        33.23085        -0.25257
C         31.76283        33.93996        -0.03129
C         32.96204        36.09395         0.01236
C         31.75716        35.34193         0.09329
C         32.99965        37.44600         0.40191
C         31.81764        38.12045         0.91599
C         33.10844        40.20091         1.24125
C         31.87835        39.44862         1.34401
C         33.15456        41.57530         1.52477
C         31.94521        42.31006         1.94995
C         33.15487        44.45537         1.62331
C         31.90572        43.77163         1.74364
C         33.15818        45.87307         1.58229
C         31.96625        46.57893         1.68028
C         31.97169        48.09107         1.71104
C         34.39505        21.09323        -0.82643
C         35.67644        23.30505        -0.68429
C         34.48071        22.53138        -1.00022
C         35.62009        24.68844        -0.56210
C         34.35351        25.36222        -0.35225
C         35.64171        27.56857        -0.08104
C         34.41161        26.76129         0.11248
C         35.51432        28.95577         0.00350
C         34.24006        29.64840        -0.03029
C         35.44607        31.67509        -0.91001
C         34.22283        31.05163        -0.26585
C         35.42535        33.20908        -0.91362
C         34.17539        33.93071        -0.54262
C         35.44722        36.17168        -0.53491
C         34.11017        35.44628        -0.73783
C         35.46912        37.50079         0.11069
C         34.26508        38.15649         0.44409
C         35.55947        40.21624         0.90208
C         34.30640        39.51727         0.86000
C         35.57741        41.60549         1.15855
C         34.38062        42.31009         1.40553
C         34.36679        43.72395         1.52176
C         36.82577        25.47430        -0.56949
C         38.13401        27.51679        -0.73393
C         36.87624        26.85551        -0.40244
C         38.49658        28.75773        -0.25992
C         36.66188        29.82052         0.12645
C         38.02272        31.79628        -0.46022
C         36.74544        31.10233        -0.35767
C         38.01262        33.18986        -0.61129
C         36.74387        33.93500        -0.85747
C         37.99809        36.06942        -0.14876
C         36.75439        35.42789        -0.63670
C         37.96254        37.40615         0.20180
C         36.73066        38.14148         0.32120
C         36.75863        39.49548         0.68599
C         39.47901        29.70280        -0.69621
C         40.49645        31.89105        -0.70809
C         39.30552        31.08691        -0.55784
C         40.47739        33.24806        -0.59637
C         39.22755        33.95424        -0.50229
C         39.20874        35.32475        -0.23423
O         22.04280        14.07400         1.43185
O         18.38044        37.31964        -1.14580
O         13.86889        38.17328        -1.63690
O         29.37697        25.68069         1.46853
O         24.03711        35.86707        -1.18717
O         23.44059        16.07554        -2.70470
O         29.76203        17.48517        -2.81281
O         28.19531        24.35838        -1.84912
O         21.48512        16.82823         0.46788
O         19.21955        21.77386        -3.13172
O         27.41001        50.74504        -2.06420
O         21.19306        33.69976        -1.63161
O         21.24274        52.84813        -3.49142
O         10.03887        29.23805        -0.90620
O         21.94299         8.31441         0.10499
O         23.33927        29.22457         1.67498
O         20.86264        24.25651        -3.00695
O         18.54389        39.33284         2.84326
O         26.12238        41.82266         3.55275
O         19.03026        29.66868        -2.01552
O         23.04210        45.54282         3.05995
O         26.74231        47.99285         2.46318
O         16.32077        48.93246         1.09906
O         23.04449        38.35880        -0.94463
O         18.62877        11.70798        -0.38427
O         15.75123        41.80194         2.64047
O         13.38544        41.61024        -1.22113
O         31.48027        41.98395         3.33891
O         20.29102        27.89945         0.75406
O         23.25678        19.57858        -0.11086
O         36.22540        36.17250        -1.78706
O         33.80422        23.06607        -2.19199
O         25.35761        47.36696        -0.73848
O         37.73737        29.26353         0.81891
O         18.61731        42.05384         3.32255
O         16.11303        44.60948         2.87429
O         30.36958        39.35053         3.26279
O         27.68769        16.17549        -2.98286
O         25.98541        35.16988         1.99679
O         17.41790        15.85035        -2.10364
O         27.60326        29.29596         1.96139
O         18.49634        15.10814         1.30651
O         26.09946        24.55207         1.02607
O         25.42604        27.86138         1.80622
O         25.62855        14.78216        -2.56364
O         28.92831        46.75567         3.27764
O         20.40484        49.15891        -2.35990
O         14.85751        31.57131        -2.11142
O         27.46177        37.27072         2.78110
O         36.08457        33.66531        -2.15324
O         24.19513        10.82643         2.49737
O         19.42379        26.48709        -2.67216
O         11.75321        24.99010         1.72582
O         22.18076        21.76874        -3.00726
O          8.61812        32.60637         2.34097
O         21.34243        10.74505         2.68268
O         15.79114        20.78199        -2.42786
O         20.13763        14.19845        -1.78526
O         20.79717        40.71858         3.22841
O         33.85055        26.98505         1.46005
O         22.57877        59.03146        -1.56733
O         24.43329        54.34614        -3.07375
O         16.36680        38.42769         1.87449
O         27.93904        39.89014         3.95010
H         28.83734        39.87339         4.35407
O         19.44003        33.69015         1.59620
H         18.70021        34.17636         2.01993
O         16.54573        40.94293        -0.78674
H         15.87164        41.19595        -1.45670
O         26.84358        34.41155        -1.38412
H         26.79641        33.64351        -1.99064
O         18.38454        56.45794        -2.00759
H         18.29277        56.02940        -1.13251
O         28.91934        43.87638         0.34238
H         29.63977        43.54630        -0.23429
O         29.38762        10.17978         1.13121
H         29.15123        10.52943         2.01468
O         24.32274        18.43048        -3.45516
H         23.88290        17.63922        -3.84270
O         35.34332        31.23641        -2.29604
H         35.77711        31.93714        -2.83912
O         23.18809        50.63395         1.07512
H         23.22225        51.59089         0.86255
O         12.61147        31.31843         1.87109
H         11.95198        30.85708         2.43328
O         33.74782        35.62553        -2.14161
H         34.59106        35.52331        -2.64736
O         22.30201        37.28993         2.41553
H         21.79164        37.67077         3.16200
O         28.50990        44.30800         3.93612
H         28.78592        45.17934         4.30600
O         15.18949        21.01318         1.17232
H         14.55152        21.41892         1.79715
O         16.48334        18.12334        -2.90694
H         16.93697        17.32828        -3.27358
O         30.30383        36.59646        -1.27764
H         31.17140        36.52525        -1.73357
O         19.11834        30.88949         1.44985
H         19.25507        31.76005         1.89665
O         22.50273        56.50526        -3.51488
H         23.33501        56.03936        -3.76413
O         13.46768        48.78161         0.01018
H         13.65009        49.06411         0.93082
O         31.97991        48.52919         3.08382
H         31.15783        48.20577         3.50992
O         26.81105        20.74792         0.61515
H         25.94226        21.08014         0.93136
O         11.18642        27.67381         2.23490
H         11.37803        26.75451         2.54456
O         12.94719        45.09637         2.63494
H         13.83496        45.20860         3.04042
H          4.97956        31.35603         1.29468
H          4.95785        33.79527         1.26644
H          7.45550        27.02791         0.91822
H          6.18388        29.18939         1.06350
H          6.14042        35.97704         0.85135
H          7.35800        38.12572         0.73460
H          9.95771        22.68497         0.21516
H          8.67473        24.91247         0.43399
H          8.62250        40.30070         0.51250
H          9.78160        42.34265         0.57129
H         12.39835        18.43087         0.10017
H         11.15180        20.59293         0.10233
H         10.93247        44.44459         1.02781
H         12.42976        46.55861         0.08801
H         14.82200        14.24691         0.43497
H         13.68219        16.36015         0.36164
H         14.39230        47.73498        -1.50073
H         15.10382        50.35146        -1.55891
H         17.37469        10.05154         2.19527
H         16.10115        12.57947         1.66182
H         16.47666        52.30458        -2.19237
H         17.65848        54.22540        -2.56923
H         20.02878         6.16199         3.02863
H         18.71228         8.13518         2.47762
H         19.65612        56.50221        -3.61855
H         19.57508        58.05071        -0.82413
H         23.47530         2.91702         3.65152
H         21.30852         4.13227         3.50868
H         22.41977        60.81785         2.01280
H         20.49976        59.64448         0.98498
H         25.59984         4.02484         2.99338
H         26.80212         6.01136         2.09477
H         26.28684        58.28890         0.77228
H         24.73934        60.07996         1.60177
H         27.99055         8.06023         1.27662
H         28.58302         9.98088        -0.74593
H         29.16626        54.57056        -0.31010
H         27.73956        56.52945         0.00921
H         30.38479        12.15027        -0.03189
H         31.58743        14.21992        -0.35998
H         31.73020        50.47843         0.38149
H         30.51804        52.47641        -0.29946
H         32.85287        16.32982        -0.62651
H         34.09001        18.42999        -0.78689
H         34.11250        46.41065         1.48525
H         32.90554        48.48342         1.23837
H         35.30748        20.53767        -0.56283
H         36.64518        22.78823        -0.61513
H         36.53292        42.14894         1.13261
H         35.31524        44.27501         1.44667
H         37.76201        24.94564        -0.80462
H         38.79056        27.00618        -1.45447
H         38.89936        37.92137         0.46105
H         37.72459        40.00974         0.79333
H         40.43072        29.34146        -1.11741
H         41.45599        31.36533        -0.82124
H         41.41238        33.82593        -0.60419
H         40.16074        35.84542        -0.05279
