         280
 CSIRO Nanostructure Databank - Neutral Graphene Oxide Data Set
C         30.98129        31.81373         0.19662
C         30.99430        33.04849         0.25606
C         30.43593        36.29189         1.05074
C         30.47991        37.51999         1.19562
C         30.38892        40.65117         0.52709
C         30.28827        41.70472        -0.11219
C         32.88721        28.87398         1.34577
C         31.87535        29.48676         1.00759
C         32.78106        31.64959         1.92894
C         31.26406        30.78807         1.23958
C         32.73837        33.15005         1.95680
C         31.39492        33.83656         1.47354
C         32.81057        36.09257         1.58650
C         31.49297        35.33845         1.45797
C         32.86764        37.56591         1.20707
C         31.61995        38.44815         1.27467
C         32.47806        40.09764        -0.46803
C         31.67423        39.91595         0.84717
C         32.60414        41.57229        -0.92082
C         31.45078        42.59266        -0.42652
C         32.56893        44.16686        -1.84548
C         31.50008        43.67542        -1.46671
C         35.41117        27.42234         0.75312
C         35.48753        28.62192         1.66232
C         34.17844        29.38449         1.84487
C         35.30851        31.66848         1.55321
C         34.09818        30.88763         2.00615
C         35.36575        33.12670         1.94953
C         34.07471        33.90544         2.08210
C         35.29219        35.88834         0.96757
C         34.16918        35.45755         1.93849
C         35.23166        37.18267         0.21782
C         33.95695        38.00488         0.26295
C         35.15419        40.07558        -0.61508
C         33.84396        39.32575        -0.45840
C         35.22333        41.40932        -1.40866
C         33.87731        42.15402        -1.47039
C         35.16643        44.43216        -1.59920
C         33.93694        43.64159        -1.85390
C         35.31998        45.87921        -1.45156
C         37.53195        27.41264        -0.56270
C         36.31496        26.89011         0.11426
C         37.71644        28.85010         0.11672
C         36.66859        29.46148         1.02743
C         37.80350        31.75505         0.79830
C         36.52207        30.96992         0.99835
C         37.94606        33.06531         1.55064
C         36.66971        33.86715         1.71081
C         37.86299        35.83471         0.53751
C         36.64316        35.29347         1.24657
C         37.78245        37.09692        -0.28758
C         36.42412        37.80470        -0.55224
C         37.70194        40.04122        -0.92829
C         36.45426        39.33237        -0.43780
C         37.68460        41.53434        -0.66652
C         36.36132        42.26612        -0.82654
C         37.66882        44.52197        -0.96202
C         36.38108        43.77082        -0.93804
C         37.69491        45.95836        -1.24805
C         36.33662        46.53115        -1.19690
C         40.03573        24.59830        -1.05023
C         39.02513        25.23550        -0.74355
C         40.14312        27.38848        -0.51374
C         38.81358        26.63434        -0.36261
C         40.11276        28.89635        -0.75053
C         38.76552        29.70057        -0.62158
C         40.32538        31.65482         0.33622
C         38.94115        31.11809         0.04197
C         40.44876        33.01905         0.98163
C         39.22920        33.82203         1.40398
C         40.44546        36.05183         0.72023
C         39.18550        35.32160         1.09392
C         40.38705        37.26786        -0.20554
C         39.07440        37.83669        -0.66931
C         40.32112        40.12511        -1.17478
C         39.01234        39.30767        -1.07868
C         40.26633        41.61397        -0.97712
C         38.95850        42.31248        -0.72539
C         40.26828        44.51728        -0.95426
C         38.94568        43.78327        -1.05372
C         40.22567        45.94788        -0.43069
C         39.00991        46.75720        -0.95784
C         40.22565        48.59729        -0.01035
C         39.16293        48.13699        -0.54654
C         42.58797        24.68993        -1.85542
C         41.41722        25.07352        -1.05640
C         42.59775        27.43998        -1.39667
C         41.41881        26.62436        -0.86732
C         42.70739        28.74306        -0.65573
C         41.44735        29.59655        -0.70435
C         42.80902        31.52511         0.26567
C         41.53045        31.11438        -0.46429
C         42.96064        32.99859         0.53964
C         41.75081        33.78393         0.90986
C         43.01286        35.96917         0.29446
C         41.76460        35.29886         0.78881
C         42.93422        37.42516        -0.11186
C         41.62921        38.13098        -0.26888
C         42.91048        40.25841        -0.80484
C         41.67249        39.36758        -1.16864
C         42.78035        41.68987        -0.42547
C         41.47527        42.39050        -0.57773
C         42.88801        44.41295        -0.73645
C         41.51204        43.74719        -0.64925
C         42.85102        45.95019        -0.76446
C         41.54934        46.70316        -0.64823
C         42.86354        48.63351        -0.07123
C         41.54339        48.17906        -0.17271
C         43.64073        25.33840        -1.95516
C         45.21143        27.49786        -2.01588
C         43.85468        26.79297        -1.94933
C         45.29360        28.84966        -1.09076
C         44.04711        29.35038        -0.41285
C         45.39398        31.44297         0.38726
C         44.07144        30.73431         0.19206
C         45.42443        32.87774        -0.10469
C         44.12927        33.65299        -0.12773
C         45.47492        35.80854        -0.51758
C         44.14685        35.13832        -0.26812
C         45.45278        37.30937        -0.50675
C         44.18485        38.06994        -0.61589
C         45.09659        40.08844         0.68184
C         44.28985        39.59488        -0.52267
C         44.97792        41.55046         1.02510
C         43.67924        42.34678         0.63553
C         45.10711        44.58109         0.67510
C         43.84864        43.85105         0.32153
C         45.35005        45.96958         0.07397
C         44.18898        46.67701        -0.54545
C         43.94440        48.12399        -0.48315
C         47.56719        27.29169        -1.22975
C         46.46499        26.83250        -1.54653
C         47.87995        28.56078        -0.54670
C         46.59840        29.38757        -0.53839
C         47.97918        31.41665         0.15983
C         46.67765        30.66810         0.26487
C         47.83022        32.86014         0.58628
C         46.75205        33.59124        -0.18406
C         48.07405        35.87473        -0.40199
C         46.79557        35.07938        -0.49213
C         47.93658        37.27078         0.12143
C         46.60272        37.95976         0.18741
C         47.62034        40.06973         1.40018
C         46.42418        39.35078         0.83599
C         47.43627        41.49424         2.04625
C         46.19263        42.31816         1.53169
C         47.62093        44.48962         1.47999
C         46.24503        43.81793         1.37378
C         47.39581        45.94581         1.40476
C         46.51807        46.52803         0.76619
C         50.51191        28.88519        -0.78550
C         49.17168        29.31198        -0.38797
C         50.49164        31.57985        -0.05975
C         49.16937        30.83178        -0.16392
C         50.53834        33.10387        -0.10116
C         49.50260        33.86199        -0.89376
C         50.55250        36.13491        -0.51446
C         49.30719        35.32093        -0.54433
C         50.46002        37.63167        -0.24001
C         49.11025        38.21596         0.15159
C         50.23554        40.35614         1.17582
C         48.96554        39.57949         0.83756
C         50.11947        41.53235         2.12822
C         48.79215        42.24519         2.20106
C         50.10113        44.32527         2.41800
C         48.81776        43.75461         1.96116
C         51.57899        29.49981        -0.87227
C         52.95213        31.75228        -0.48928
C         51.86700        30.80240        -0.27593
C         52.96440        32.96008        -0.22104
C         51.86873        33.90934        -0.03069
C         52.89738        36.31758         0.10816
C         51.89178        35.37065        -0.39078
C         52.82906        37.53721         0.27288
C         51.71502        38.47287         0.07600
C         52.69773        40.50253         1.41893
C         51.59362        39.82781         0.70755
C         52.65272        41.63851         1.91128
C         51.71081        42.40489         2.70826
C         51.19577        43.74182         2.39449
O         45.79496        43.23819         2.61150
O         48.55770        28.57506         0.71075
O         42.71461        33.34490         1.91946
O         38.56809        46.45984        -2.27446
O         46.11175        35.35114        -1.74372
O         40.33082        41.03362        -2.32161
O         50.86494        40.79304        -0.07413
O         42.36280        38.26373         0.95955
O         40.78646        29.29396        -1.98222
O         38.06535        32.06563        -0.61808
O         43.23129        30.74425         1.39186
O         48.40339        33.36844         1.52887
O         47.07952        37.09959         1.28715
O         32.88277        41.53097        -2.35054
O         45.26435        46.12332        -1.34478
O         43.52074        43.96154        -1.99893
O         42.86323        27.45223        -2.82123
O         51.29706        30.98588         1.01414
O         51.05611        33.69495         1.13105
O         37.93061        28.95031         1.53876
O         35.85753        40.02136         0.68002
O         44.88872        37.67215        -1.82023
O         35.99427        43.07693         0.31447
O         51.17386        38.40939        -1.24426
O         46.84498        39.17734         2.22014
O         46.06071        29.81564        -1.84229
O         34.14207        30.00126         3.15576
O         31.95395        35.81660         2.74261
O         34.90706        35.87021        -0.41940
O         42.16106        46.50097        -1.92978
O         32.45181        32.32060         3.14089
O         46.21727        32.86960        -1.32433
O         38.37851        41.93691         0.55591
O         34.79854        33.42253         3.24978
O         33.60013        38.09875        -1.17285
O         42.75187        35.84244         1.71494
O         49.41874        41.58331         3.36493
O         43.20880        41.32490        -1.76830
O         36.86103        34.97530         2.63635
O         37.75726        35.76345        -0.90380
O         38.15209        39.57999        -2.22219
O         48.94453        33.33476        -1.83986
O         38.79464        33.29285         2.69850
O         35.47033        31.45865         0.10619
O         39.59035        27.00190         0.78008
O         44.53136        40.47187         1.93589
O         40.58587        31.78854         1.74800
O         39.89506        37.00619        -1.54607
O         48.82230        39.42624        -0.60538
O         34.85581        43.93315        -2.92316
O         41.80072        25.67715         0.17948
O         32.49853        38.31859         2.41116
O         43.91336        44.64954         1.53050
O         39.81954        36.23405         2.02381
O         43.75116        34.28008        -1.38440
O         39.73441        44.17428        -2.25305
O         46.07283        30.93871         1.56935
O         43.42941        28.45516         0.57232
O         48.56917        43.96741         0.52727
O         51.40429        35.76554        -1.66941
O         40.05026        45.79819         0.99277
H         39.92948        46.68495         1.39757
O         47.07859        41.25745         3.41355
H         46.28591        40.67343         3.42813
O         32.33141        40.67390         1.83687
H         32.09126        40.34745         2.73011
O         31.65319        39.46399        -1.44565
H         31.96760        39.72471        -2.33917
O         38.27810        29.91785        -1.93940
H         39.03612        30.10814        -2.53425
O         41.88132        38.87545        -2.49422
H         41.62452        39.58854        -3.12118
O         30.30842        30.78860         2.20050
H         30.07933        31.72514         2.43509
O         35.60655        41.09306        -2.75025
H         34.80179        40.89204        -3.27554
O         51.81626        42.14855         4.04262
H         51.02454        42.48663         4.51338
O         42.58264        44.17900        -3.07539
H         42.25684        43.26687        -3.27642
O         45.40839        27.89803        -3.34898
H         44.54304        27.95195        -3.80881
O         37.34222        27.54145        -1.95375
H         36.49512        27.99670        -2.13819
O         36.16040        37.60534        -1.94580
H         36.06495        36.63807        -2.09543
O         31.90873        43.14821         0.77839
H         31.19473        43.67085         1.19691
O         35.95214        28.22853         2.93037
H         35.19631        27.98832         3.50425
O         42.83361        42.30424         1.79698
H         43.28026        42.81182         2.51171
O         45.19927        40.02677        -1.55209
H         44.87584        39.70796        -2.42329
O         34.49989        36.01291         3.21167
H         34.90090        35.30259         3.76648
O         30.37947        33.53049         2.43834
H         30.50255        34.12135         3.21375
O         41.56201        31.78317        -1.73388
H         41.16272        31.19380        -2.41375
