         268
 CSIRO Nanostructure Databank - Neutral Graphene Oxide Data Set
C        -11.32153         0.59124        -0.32206
C        -10.10651         1.43885        -0.35096
C         -8.80995         0.70197        -0.33481
C         -7.62185         1.37843         0.25961
C         -6.28206         0.80500        -0.13039
C         -5.07667         1.42518         0.51979
C         -3.71830         0.82354         0.29827
C         -2.50768         1.53625         0.81804
C         -1.25642         0.78224         1.30013
C          0.02592         1.58259         1.05530
C          1.34877         0.88606         0.95342
C          2.52048         1.57115         1.67689
C          3.88682         0.77944         1.56407
C          5.21568         1.53277         1.40665
C          6.55268         0.73191         1.40292
C          7.89360         1.27035         1.00415
C          8.85473         0.55071         0.12497
C          9.54579         1.10738        -1.11756
C         10.01043         0.07793        -2.08175
C        -10.11647         2.89700        -0.00256
C         -8.99466         3.57543         0.34647
C         -7.73344         2.82750         0.60918
C         -6.44230         3.56618         0.41554
C         -5.17941         2.87915         0.85639
C         -3.92401         3.68550         1.08053
C         -2.62634         2.96927         1.29702
C         -1.33423         3.75773         1.35241
C         -0.02788         3.02876         1.49772
C          1.25980         3.79731         1.30166
C          2.59958         3.06509         1.36550
C          3.85635         3.74313         0.89092
C          5.16933         2.98545         0.86175
C          6.27097         3.64672         0.07372
C          7.12101         2.76298        -0.81706
C          8.35765         3.33072        -1.40713
C          9.41862         2.50749        -1.61558
C         -8.88954         5.07770         0.61067
C         -7.76909         5.74858        -0.24039
C         -6.44007         4.97635        -0.07487
C         -5.09635         5.71551        -0.19430
C         -3.93431         5.13858         0.67295
C         -2.64468         5.90077         0.57108
C         -1.35939         5.11530         0.68491
C         -0.08348         5.77946         0.28293
C          1.21671         5.17359         0.73789
C          2.39695         5.69710        -0.01825
C          3.68278         4.91567        -0.07318
C          4.82574         5.56581        -0.80873
C          6.20155         5.08989        -0.41014
C          7.36675         5.55072        -1.23439
C          8.42182         4.77899        -1.59286
C         -7.60637         7.24577        -0.00689
C         -6.42952         7.92650         0.01623
C         -5.10322         7.21957         0.20750
C         -3.88279         7.94385        -0.39752
C         -2.59361         7.22799        -0.17674
C         -1.31201         8.00895        -0.20851
C         -0.04378         7.26028        -0.02696
C          1.25102         7.97751         0.35275
C          2.36282         7.15677        -0.34468
C          3.60706         7.86662        -0.75574
C          4.80358         7.05474        -1.14048
C          6.16905         7.74853        -1.26978
C          7.24792         6.90031        -0.56680
C         -6.31303         9.38204         0.14991
C         -5.15401        10.06330         0.00767
C         -3.88315         9.46316        -0.55862
C         -2.57363        10.11508        -0.09532
C         -1.37552         9.48499        -0.04535
C         -0.05165        10.24491         0.13153
C          1.23898         9.44177        -0.07778
C          2.43126        10.03225        -0.32381
C          3.72821         9.24840        -0.12875
C          5.02001         9.91018        -0.54321
C          6.11374         9.22071        -0.90475
C        -11.26061        -0.75442        -0.48119
C        -10.01829        -1.50859        -0.65720
C         -8.73289        -0.83595        -0.21727
C         -7.48909        -1.32346        -1.00096
C         -6.20207        -0.56123        -0.74307
C         -4.87953        -1.30629        -0.69116
C         -3.67178        -0.64131        -0.07376
C         -2.49223        -1.42601         0.42165
C         -1.25125        -0.72184         0.90585
C          0.06318        -1.40443         0.58531
C          1.35106        -0.61615         0.65823
C          2.68583        -1.35812         0.65548
C          3.88191        -0.72816         1.33818
C          5.19354        -1.51674         1.35879
C          6.51120        -0.79138         1.45426
C          7.79150        -1.56133         1.18664
C          8.92930        -0.94810         0.41815
C         10.07438        -1.70946        -0.29859
C         10.23618        -1.19298        -1.72042
C        -10.00509        -2.80721        -1.05108
C         -8.77224        -3.58228        -1.48306
C         -7.47570        -2.75838        -1.41922
C         -6.15700        -3.50509        -1.40786
C         -4.90687        -2.80064        -0.93693
C         -3.74583        -3.58468        -0.38913
C         -2.50110        -2.91013         0.11335
C         -1.15813        -3.57661        -0.12439
C          0.08988        -2.92436         0.45230
C          1.40684        -3.60371         0.23060
C          2.70955        -2.81124         0.25075
C          3.98510        -3.62610         0.39394
C          5.21863        -2.96700         0.93930
C          6.39504        -3.78066         1.44191
C          7.70465        -3.04080         1.59341
C          8.94579        -4.04812        -0.36318
C          9.98195        -3.23218        -0.38788
C         -8.63618        -4.96939        -0.88728
C         -7.49384        -5.68341        -0.97529
C         -6.21502        -5.02297        -1.36254
C         -4.93236        -5.77792        -1.17154
C         -3.68558        -5.07552        -0.69204
C         -2.36831        -5.79718        -0.70345
C         -1.08493        -4.97827        -0.67671
C          0.22276        -5.78716        -0.83537
C          1.57461        -4.94486        -0.52942
C          2.66768        -5.76917         0.17294
C          3.87994        -5.10697         0.47300
C          4.99391        -5.84830         0.90757
C          6.33803        -5.27684         1.24365
C          7.65432        -5.99549         0.70881
C          8.14276        -5.09359        -0.45254
C         -7.48896        -7.19717        -0.79752
C         -6.22539        -7.75455        -0.10074
C         -4.97834        -7.24117        -0.82102
C         -3.69072        -7.98491        -0.73152
C         -2.35390        -7.30033        -0.92232
C         -1.11463        -7.97457        -0.43906
C          0.11030        -7.14158        -0.12519
C          1.35432        -7.90944         0.15398
C          2.64198        -7.17937         0.17314
C          3.78049        -7.93631         0.51700
C          4.85844        -7.23402         1.05812
C          6.70963        -8.34737         0.65241
C          7.50391        -7.40270         0.10829
C         -6.19976        -9.27261        -0.11041
C         -5.05424        -9.95723         0.01201
C         -3.74327        -9.23989         0.24918
C         -2.49557        -9.98371        -0.06717
C         -1.20192        -9.33283         0.31277
C          0.05582       -10.16897        -0.02679
C          1.36311        -9.40013         0.14967
C          2.53528       -10.07315         0.16646
C          3.84968        -9.34960        -0.03057
C          5.10438       -10.17837         0.19355
C          6.37886        -9.73036         0.26772
O          5.05688        -3.15025        -0.49906
O         -0.80394         4.97256        -0.67804
O          0.52441        -7.26612         1.24126
O          5.88318        -7.91968         1.71626
O         -3.43960         3.37333         2.42529
O          6.29769         3.66896         1.52272
O         -2.80890         1.54563        -0.60520
O         -0.73154         3.51680         2.66130
O         -8.46503        -1.14386         1.11144
O          3.91947         7.60526        -2.15951
O          3.76625        -0.17122         2.66039
O         -7.78940         1.80484         1.63924
O         -0.47907         7.59909        -1.36152
O         -3.16182        -5.70979         0.52559
O         -5.46423        -5.57181        -2.50581
O          8.96266        -1.00959         1.87730
O         -5.32836         1.85901         1.87958
O         -3.21624         7.27669        -1.49481
O         -5.16085        -3.04861        -2.35280
O         -2.15182        -1.36440         1.85075
O         -3.82831        -0.74060        -1.52280
O         10.20764         1.09824         0.18437
O          3.44962         3.83171         2.27947
O         -1.46272        -7.97623        -1.84850
O          8.61312        -3.49257         2.26666
O         -1.06895        -3.83201        -1.56797
O         -7.59903        -1.66991        -2.39990
O          4.02721         4.55923        -1.46391
O          0.65457        -0.82555        -0.60485
O         -4.97362         7.30208         1.60632
O          6.63175         6.16165         0.57240
O         -6.39081         3.85928        -1.03098
O          6.67455         1.66533        -1.16562
O          0.74299        -3.65747         1.53127
O          6.05659         1.41800         2.58316
O          1.31783         4.98488         2.15844
O          2.14982        -4.61811        -1.75074
O          6.28822        -4.70605         2.57785
O         -3.48468         5.97217         1.77614
O         -4.49691        -8.10818        -1.90824
O          5.87226        -1.33100         2.63251
O          1.47137         7.93402         1.73379
O          1.93842         6.17587        -1.31621
O          2.94286        -1.76388        -0.72273
O          0.77162         1.57956        -0.19324
O         -6.13352         0.64526        -1.56526
O         -9.27358         1.20808        -1.58893
O         -3.49869        -3.43717         1.04294
O         -6.20983        -7.25614         1.24649
H         -5.42670        -7.64926         1.70371
O         -1.31417         0.81116         2.73842
H         -1.95742         0.13059         3.04291
O         -8.98944        -3.84608        -2.89964
H         -8.79389        -3.00760        -3.37666
O          6.53339         7.69613        -2.67105
H          5.73526         7.97005        -3.17814
O         -1.19455        -9.02754         1.72532
H         -1.03967        -9.85464         2.22633
O         -3.79102        -8.69368         1.57097
H         -2.86257        -8.53534         1.88761
O         -4.74620         5.57713        -1.56426
H         -5.10369         4.71664        -1.89165
O         -8.20415         5.61658        -1.60580
H         -7.44676         5.79466        -2.20141
O          8.60088        -6.11019         1.74907
H          8.63813        -5.26209         2.25640
O          2.12731         1.51553         3.05505
H          2.70653         2.11201         3.57713
O          3.87955         9.01363         1.29841
H          3.00214         8.68891         1.67164
O         -3.93991         9.74284        -1.98370
H         -3.44137         9.01781        -2.42918
O         -7.58463        -7.78174        -2.10008
H         -6.89725        -7.37454        -2.67265
O         -0.04337       -10.61626        -1.37935
H         -0.03153        -9.83716        -1.97632
O          3.89573        -9.14769        -1.49240
H          4.70083        -8.62962        -1.70497
O         -0.05363        11.41317        -0.68505
H         -0.16963        11.13713        -1.61724
O         -8.53385         5.27375         1.97809
H         -9.14259         4.76219         2.54891
O          8.37545         2.25384         1.70773
H          7.66395         2.61630         2.30800
O          0.28437        -6.12229        -2.21999
H          0.98617        -5.51665        -2.60168
O         11.27590        -1.39221         0.41529
H         11.07442        -1.43909         1.37524
H         10.59437        -1.90823        -2.47550
H         10.15363         0.39381        -3.12533
H         10.34472         2.92547        -2.04283
H          9.36318         5.22169        -1.94873
H          8.17793         7.44124        -0.28441
H          7.04465         9.77342        -1.11174
H          5.10258        10.99755        -0.38879
H          2.48171        11.11374        -0.52932
H         -0.01614        10.60127         1.19890
H         -2.58891        11.21440        -0.01648
H         -5.16027        11.15468         0.15274
H         -7.22717         9.93105         0.42686
H         -8.53989         7.82865        -0.07464
H         -9.87247         5.57648         0.37984
H        -11.06397         3.44273        -0.14392
H        -12.29620         1.08458        -0.19033
H        -12.20019        -1.32896        -0.50583
H        -10.96138        -3.29841        -1.29680
H         -9.56450        -5.48046        -0.58739
H         -8.39328        -7.50844        -0.21885
H         -7.15159        -9.80650        -0.25043
H         -5.05029       -11.05709        -0.00982
H         -2.48852       -10.57477        -0.99936
H          0.06919       -11.08394         0.62065
H          2.53235       -11.17368         0.11898
H          4.96457       -11.24882        -0.03349
H          7.20354       -10.45380         0.15906
H          8.17005        -7.65464        -0.72914
H          7.69507        -5.31274        -1.44021
H         10.97140        -3.69272        -0.57380
