         429
 CSIRO Nanostructure Databank - Neutral Graphene Oxide Data Set
C          1.30349         2.00695         1.56640
C          1.16504         3.35680         1.36582
C          2.53542         1.32280         1.36841
C          2.32299         4.15210         0.91517
C          1.06677         6.44474         0.91621
C          1.04942         7.78891         0.94586
C          2.30790         5.65928         0.73558
C          2.29153         8.59910         0.97582
C          1.09346        10.78630         0.55894
C          1.11077        12.16825         0.47198
C          2.28734        10.04094         0.66595
C          2.33386        12.89101         0.56225
C          1.17294        15.12718         0.56795
C          1.19217        16.47799         0.39317
C          2.37614        14.33520         0.59975
C          2.47998        17.18544         0.07995
C          2.50092        18.65535         0.41679
C          3.72248         2.02138         1.10498
C          3.66406         3.50598         1.11734
C          4.96275         1.39340         0.90057
C          4.89636         4.28595         0.76489
C          3.59935         6.39035         0.68222
C          3.61869         7.85743         0.82681
C          4.78862         5.73544         0.44758
C          4.80567         8.60222         0.35161
C          3.53304        10.72008         0.57023
C          3.53639        12.14121         0.59948
C          4.76742         9.98330         0.34416
C          4.81874        12.83035         0.83255
C          3.62804        15.03663         0.73287
C          3.64742        16.43546         0.66271
C          4.87217        14.29829         0.86639
C          4.86174        17.17585         0.96858
C          3.65455        19.32539         0.63156
C          4.93217        18.63824         0.72805
C          6.13929         2.11585         0.55557
C          6.11711         3.53573         0.41456
C          7.34610         1.43467         0.22874
C          7.24590         4.22614        -0.03758
C          5.97147         6.46060         0.04822
C          5.98739         7.85500        -0.04869
C          7.13850         5.66052        -0.37323
C          7.21727         8.57224        -0.40141
C          5.94250        10.76668        -0.19841
C          6.09366        12.08740         0.51871
C          7.24975        10.01530        -0.29305
C          7.34051        12.85005         0.33881
C          6.10497        14.93397         0.85940
C          6.15814        16.39278         1.04361
C          7.35716        14.22641         0.64073
C          7.41140        17.08852         0.55578
C          6.14276        19.28469         0.74982
C          7.41012        18.58378         0.79254
C          8.48383         2.12002        -0.16781
C          8.47391         3.54328        -0.27415
C          9.69723         1.34063        -0.61134
C          9.70244         4.27937        -0.46724
C          8.42124         6.39941        -0.69692
C          8.39902         7.86939        -0.63028
C          9.69835         5.67687        -0.55281
C          9.64785         8.54762        -0.98322
C          8.44004        10.73706        -0.34491
C          8.52289        12.14775         0.00747
C          9.67470        10.09852        -0.82432
C          9.77664        12.81419         0.10377
C          8.60820        14.90776         0.67593
C          8.63149        16.36177         1.12880
C          9.79386        14.20185         0.44389
C          9.89544        17.10379         0.77558
C          8.61201        19.23685         0.83855
C          9.87665        18.52572         0.71733
C         10.98555         2.12460        -0.53318
C         10.97112         3.55617        -0.48950
C         12.18479         1.44017        -0.53944
C         12.18667         4.25588        -0.46670
C         10.91858         6.43982        -0.57381
C         10.91277         7.79088        -0.84840
C         12.19970         5.73865        -0.18873
C         12.17813         8.51444        -1.09878
C         10.96659        10.77657        -0.60551
C         11.00824        12.06363        -0.10605
C         12.19395        10.04905        -1.00643
C         12.32790        12.70513         0.17344
C         11.08739        14.91519         0.65918
C         11.09242        16.40518         0.59345
C         12.37250        14.16661         0.52967
C         12.28281        17.10557         0.31759
C         11.07543        19.21954         0.50673
C         12.29547        18.53097         0.28840
C         13.43328         2.12936        -0.53089
C         13.42727         3.56321        -0.50751
C         14.65701         1.43304        -0.52532
C         14.67036         4.27290        -0.53376
C         13.46260         6.42495        -0.65644
C         13.46004         7.80563        -0.92459
C         14.68051         5.71217        -0.64074
C         14.68152         8.51614        -1.06093
C         13.51112        10.68502        -0.87177
C         13.58186        12.06909        -0.35024
C         14.66577         9.96324        -1.07559
C         14.76374        12.89575        -0.66750
C         13.70643        14.93159         0.41424
C         13.49167        16.36146        -0.08029
C         14.81040        14.24853        -0.38274
C         14.74636        17.14434        -0.35341
C         13.52764        19.24515         0.12340
C         14.75251        18.59795        -0.08894
C         15.88561         2.12365        -0.50569
C         15.89168         3.55986        -0.53408
C         17.12488         1.42880        -0.44143
C         17.14386         4.26012        -0.53956
C         15.92666         6.40918        -0.77542
C         15.92367         7.82681        -0.95555
C         17.15475         5.69413        -0.66534
C         17.17821         8.54331        -0.98130
C         15.94121        10.68577        -1.28774
C         15.95500        12.19870        -1.20730
C         17.20835         9.95886        -1.11192
C         17.26282        12.86993        -1.06639
C         15.99569        15.01818        -0.62687
C         16.02488        16.40562        -0.39284
C         17.23462        14.37861        -1.20624
C         17.23543        17.13102        -0.29761
C         15.99770        19.25458         0.00715
C         17.23432        18.55358        -0.07378
C         18.33230         2.11605        -0.37253
C         18.34813         3.53123        -0.42967
C         19.60759         1.33172        -0.14667
C         19.66880         4.24114        -0.26525
C         18.40372         6.39865        -0.72908
C         18.40369         7.82714        -0.88298
C         19.62996         5.69995        -0.65639
C         19.64269         8.53509        -0.90826
C         18.42338        10.67639        -1.05124
C         18.42348        12.13728        -1.07672
C         19.65196         9.96122        -0.95914
C         19.73336        12.83639        -1.09634
C         18.48567        15.06089        -0.72033
C         18.48612        16.41676        -0.36176
C         19.74541        14.36657        -0.88725
C         19.71883        17.11250        -0.15620
C         18.46989        19.22153         0.09653
C         19.71174        18.53325         0.07413
C         20.87721         2.05333        -0.54946
C         20.79507         3.49683        -0.99126
C         22.06190         1.39650        -0.54692
C         22.11375         4.23201        -0.86868
C         20.86205         6.38036        -0.80966
C         20.87222         7.80277        -0.88309
C         22.11015         5.64607        -0.86203
C         22.11990         8.49965        -0.92533
C         20.90951        10.66034        -0.85645
C         20.94818        12.08738        -0.77673
C         22.11865         9.93772        -0.84639
C         22.15078        12.76438        -0.45538
C         20.95329        15.01221        -0.38724
C         20.94715        16.37937        -0.12224
C         22.11350        14.18188         0.06740
C         22.20639        17.06423         0.14106
C         20.94289        19.20860         0.24063
C         22.19794        18.53177         0.19681
C         23.33166         2.07553        -0.76335
C         23.32790         3.51787        -0.87272
C         24.52650         1.37830        -0.74142
C         24.57743         4.21887        -0.92048
C         23.34802         6.35944        -0.96441
C         23.33307         7.77639        -0.99144
C         24.58972         5.63578        -1.01363
C         24.59148         8.54233        -1.29158
C         23.36536        10.63907        -0.65280
C         23.35193        12.05213        -0.34396
C         24.55540         9.92520        -0.69490
C         24.60042        12.75895        -0.09874
C         23.43036        14.92388         0.05319
C         23.39563        16.35772         0.21489
C         24.60719        14.20766         0.08217
C         24.65647        17.13112         0.56300
C         23.39567        19.22627         0.07264
C         24.67184        18.47229        -0.18994
C         25.78972         2.05391        -0.79034
C         25.80333         3.48049        -0.86002
C         27.01377         1.35052        -0.73944
C         27.05002         4.16772        -0.83726
C         25.85204         6.32488        -1.10390
C         25.88155         7.77373        -1.09703
C         27.04882         5.59337        -0.99354
C         27.06802         8.46938        -0.99407
C         25.79045        10.58878        -0.28538
C         25.78996        12.05330        -0.13146
C         27.07737         9.84533        -0.43947
C         27.05428        12.78837        -0.35595
C         25.87015        14.88598         0.58382
C         25.94145        16.37834         0.33682
C         27.15208        14.17677         0.17526
C         27.13087        17.06758         0.30757
C         25.90945        19.25978         0.09595
C         27.13216        18.55626         0.61177
C         28.24514         2.02298        -0.69848
C         28.26483         3.42831        -0.72376
C         29.53027         1.21541        -0.63433
C         29.53674         4.14084        -0.47145
C         28.33734         6.27728        -1.16943
C         28.36002         7.80490        -1.18986
C         29.57785         5.63791        -0.66495
C         29.63762         8.46398        -0.89733
C         28.36741        10.60980        -0.40955
C         28.33645        12.07755        -0.66390
C         29.65358         9.90103        -0.62420
C         29.63418        12.80148        -0.71931
C         28.41349        14.92988        -0.05412
C         28.39369        16.41169         0.04101
C         29.51592        14.30297        -0.88839
C         29.57449        17.11189        -0.16201
C         28.44536        19.23971         0.32610
C         29.60517        18.56594         0.05108
C         30.80760         2.01100        -0.40981
C         30.81793         3.42917        -0.46996
C         31.98524         1.33370        -0.11910
C         32.04018         4.16223        -0.40858
C         30.87109         6.33113        -0.80372
C         30.85515         7.76361        -0.89394
C         32.07112         5.62323        -0.58827
C         32.08674         8.49994        -0.74315
C         30.87423        10.67392        -0.88119
C         30.81571        12.11541        -0.92312
C         32.08593         9.94755        -0.80340
C         32.12282        12.82852        -1.25799
C         30.81720        15.04383        -0.70181
C         30.79549        16.41830        -0.51341
C         32.02104        14.35188        -1.08631
C         31.99363        17.26691        -0.91004
C         30.89256        19.24049         0.08951
C         32.07513        18.59994        -0.21484
C         33.20885         2.03904         0.09457
C         33.22460         3.45497        -0.12665
C         34.38782         1.37081         0.49163
C         34.52064         4.14692        -0.09616
C         33.29095         6.35866        -0.49440
C         33.28245         7.79015        -0.49485
C         34.57320         5.64711        -0.38286
C         34.46817         8.53287        -0.11271
C         33.28352        10.66272        -0.52704
C         33.21550        12.16439        -0.33658
C         34.41483         9.97163        -0.07024
C         34.62216        12.74732        -0.30443
C         33.13040        15.12783        -1.33362
C         33.29182        16.49798        -0.91190
C         34.92507        13.99607        -0.83772
C         34.51195        17.08774        -0.62593
C         33.36819        19.20808        -0.08859
C         34.55998        18.51411        -0.30693
C         35.56187         2.09838         0.88178
C         35.61851         3.49913         0.61818
C         36.64141         1.45843         1.51929
C         36.66221         4.31278         1.25239
C         35.85904         6.42217        -0.05813
C         35.63469         7.86802         0.29548
C         36.70032         5.79189         1.04693
C         36.66789         8.55361         0.99020
C         35.47864        10.67797         0.60156
C         35.62136        12.11147         0.49457
C         36.40505         9.90834         1.29991
C         36.77782        12.87349         0.89702
C         35.80765        14.87644        -0.19702
C         35.80962        16.32337        -0.60506
C         36.61957        14.27774         0.76773
C         37.07688        17.09736        -0.48926
C         35.83204        19.20900        -0.25511
C         37.04986        18.57645        -0.40666
C         37.72640         2.22291         2.22746
C         37.85804         3.65249         1.77439
C         39.05272         1.51739         2.28533
C         39.04704         4.36276         1.92289
C         37.96187         6.52420         1.35138
C         37.93783         7.94476         1.33324
C         39.11013         5.80016         1.71297
C         39.17466         8.68204         1.51529
C         38.21640        11.02028         1.60669
C         38.12917        12.35696         1.19150
C         39.30457        10.12725         1.40656
C         39.40258        13.00701         0.85687
C         38.49943        15.36857         0.67057
C         38.36995        16.45358        -0.13161
C         39.57884        14.40396         0.55429
C         39.56734        17.02034        -0.83271
C         38.33788        19.22299        -0.47974
C         39.53195        18.53670        -0.63114
C         40.21392         2.20784         2.34896
C         40.25831         3.65380         2.25210
C         41.45275         4.36591         2.38009
C         40.35330         6.49559         1.85642
C         40.38377         7.93066         1.62229
C         41.50185         5.75502         2.19520
C         41.62513         8.59888         1.44602
C         40.54340        10.75232         1.09354
C         40.58090        12.18322         0.81393
C         41.70561         9.93792         1.11633
C         41.81186        12.77217         0.41473
C         40.79198        14.93951         0.05458
C         40.84504        16.35225        -0.34578
C         41.92042        14.09069         0.01093
C         41.99646        17.09380        -0.33126
C         40.79856        19.21443        -0.65053
C         41.97375        18.51258        -0.56317
O         13.20581        11.97933         1.10489
O          9.52981         9.44791        -2.12191
O         11.78150        14.38679         1.86385
O         34.84185         4.70073        -1.47327
O         28.17644        14.26135         1.23676
O         29.40269         5.07176         0.67861
O         26.43265         9.87998         0.88912
O         19.89733        13.73318        -2.25483
O         34.21945        14.48347        -1.94225
O          4.48052         4.07681         2.18660
O          2.17361         4.73398        -0.42874
O          5.60921        12.14289         1.88464
O         37.12380        10.51625         2.33097
O         36.61962        16.58157        -1.82252
O         28.46112         6.98474        -2.42638
O         29.14065        10.26225         0.77576
O         37.45217        15.06781         1.55645
O          3.12908         8.29328         2.14632
O         13.86681        16.67303        -1.45240
O         15.83648        11.51824        -2.50614
O          7.54112         5.89867        -1.77133
O         27.46176        12.53554        -1.76051
O          5.52602        16.84500         2.25802
O         35.98741         5.32225         2.22785
O         12.10360         9.34818        -2.29363
O         12.23895         5.85447         1.28612
H         13.01284         5.33840         1.59838
O         36.69571         6.42522        -1.24390
H         36.35389         5.70757        -1.83066
O         25.76345        14.78943         2.04957
H         26.69357        14.72069         2.37939
O         32.70323        12.39463         1.01004
H         33.26248        11.89459         1.64163
O         14.25007        15.06255         1.75374
H         13.52548        14.83566         2.38377
O         29.41152         0.18707         0.35906
H         29.29265         0.61743         1.23049
O         37.24548         2.30637         3.63556
H         36.52115         2.96994         3.65105
O         24.57312        17.40470         1.99934
H         24.72139        16.53472         2.44386
O          2.63350        17.12978        -1.39573
H          2.49883        16.19545        -1.66391
O         19.53354         0.04939        -0.78291
H         19.47239         0.19334        -1.74936
O         29.14596        14.55697        -2.27452
H         29.81467        14.13375        -2.85342
O         24.56438         8.76575        -2.76137
H         23.70733         9.19274        -2.97780
O         26.96732        18.68353         2.07787
H         26.07545        18.29110         2.29126
O         24.69776        18.09881        -1.62253
H         24.74398        18.92674        -2.14536
O         39.47217        16.76790        -2.26255
H         38.51662        16.77390        -2.50011
O         31.73688        17.58636        -2.32881
H         32.47717        18.15038        -2.63877
O          7.46347        16.88840        -0.88383
H          6.84515        17.51838        -1.30970
O          5.59788        11.12953        -1.57989
H          5.71373        10.33283        -2.14032
O          9.80912         0.10494         0.10313
H          9.94731         0.31037         1.05024
O          8.50444        16.37123         2.57005
H          9.25631        15.87000         2.94932
O         21.84749        14.00226         1.52196
H         22.66028        13.61899         1.91944
O         20.43715         3.48986        -2.40457
H         21.18992         3.11001        -2.90421
O         20.01223         4.19283         1.15494
H         19.34241         4.71296         1.64621
O         17.19966        14.61797        -2.65832
H         18.06064        14.28840        -3.01108
O         32.41860        12.53105        -2.63426
H         33.20813        13.06555        -2.88365
H          0.42109         1.41558         1.85093
H          0.17895         3.83309         1.45470
H          2.55614         0.22586         1.43540
H          0.11719         5.89042         0.90718
H          0.08302         8.31120         0.99922
H          0.12416        10.26912         0.57204
H          0.15499        12.70345         0.39986
H          0.20305        14.62579         0.69632
H          0.25068        17.04582         0.35796
H          1.54877        19.20436         0.36032
H          5.01777         0.29544         0.95065
H          3.64528        20.41904         0.75849
H          7.37706         0.33650         0.28450
H          6.16729        20.38417         0.68710
H          9.53615         1.06027        -1.69190
H          8.63984        20.33473         0.91693
H         12.17704         0.34038        -0.55262
H         11.06720        20.31927         0.47646
H         14.65397         0.33314        -0.52356
H         13.51612        20.33779         0.25454
H         17.12794         0.32937        -0.41123
H         16.01576        20.33686         0.20616
H         19.67698         1.12564         0.95871
H         18.46851        20.30823         0.26946
H         22.08808         0.32508        -0.29340
H         20.93808        20.30411         0.34691
H         24.51497         0.28234        -0.64411
H         23.38645        20.32502        -0.00036
H         27.00363         0.25195        -0.68973
H         25.83008        20.34343         0.28435
H         29.64018         0.67865        -1.61867
H         28.48454        20.32429         0.51429
H         31.96590         0.24054        -0.00188
H         30.91454        20.27839         0.45861
H         34.36732         0.27995         0.62882
H         33.42005        20.26157         0.22895
H         36.56762         0.37944         1.72553
H         35.80321        20.30303        -0.13127
H         39.05338         0.41929         2.35288
H         38.36588        20.32376        -0.42305
H         41.17029         1.67238         2.45258
H         42.37805         3.82515         2.62695
H         42.46795         6.26133         2.32474
H         42.55818         8.02178         1.49774
H         42.69694        10.36566         0.91943
H         42.71605        12.15126         0.37421
H         42.88515        14.47192        -0.35097
H         42.95468        16.63224        -0.04898
H         40.81368        20.31476        -0.67557
H         42.93028        19.05449        -0.55613
