         720
 CSIRO Nanostructure Databank - Neutral Graphene Oxide Data Set
C         22.89782        27.27861        -0.56136
C         22.93764        28.70335        -0.60939
C         23.03112        31.65187        -1.02351
C         23.03306        32.99177        -1.06942
C         23.33238        35.85241        -1.78825
C         23.48062        37.14636        -2.15987
C         23.44097        40.07511        -2.34287
C         23.45890        41.44336        -2.49402
C         23.40032        44.37423        -2.48462
C         23.33706        45.74109        -2.35219
C         25.19617        24.47199         0.13838
C         24.05507        25.12753        -0.17416
C         25.35117        27.19921        -0.73039
C         24.05872        26.54566        -0.45923
C         25.36982        28.71575        -0.98539
C         24.11073        29.41245        -0.70819
C         25.44996        31.56606        -0.41195
C         24.10375        30.86721        -0.29277
C         25.41338        33.03805        -0.18152
C         24.14270        33.79308        -0.48996
C         25.50141        35.97183        -0.56973
C         24.12580        35.32499        -0.62546
C         25.63259        37.30945        -0.95655
C         24.54378        37.96430        -1.63317
C         25.78493        40.10527        -1.63312
C         24.58484        39.36909        -1.87281
C         25.81260        41.50018        -1.88560
C         24.63769        42.20093        -2.24828
C         25.74781        44.39331        -1.83874
C         24.60980        43.66003        -2.23199
C         25.67858        45.79386        -1.61054
C         24.46456        46.48322        -1.90328
C         25.53110        48.58799        -1.35869
C         24.41157        47.89310        -1.76423
C         27.82847        22.97864         0.73829
C         27.76583        24.45902         0.64873
C         26.46148        25.21143         0.32408
C         27.79597        27.26617        -0.16035
C         26.59057        26.56343        -0.24275
C         27.85856        28.70984        -0.33187
C         26.70983        29.46187        -1.01289
C         27.95210        31.65415        -0.61934
C         26.62266        30.92198        -0.60454
C         27.88075        33.09804        -0.14696
C         26.69327        33.77310        -0.10414
C         27.95468        35.98130         0.15239
C         26.63158        35.24982         0.04751
C         28.03230        37.38452        -0.30028
C         26.88195        38.04260        -0.79203
C         28.22559        40.08165        -1.11936
C         26.96792        39.41038        -1.18177
C         28.31253        41.51871        -1.35330
C         27.09414        42.21988        -1.81313
C         28.19184        44.45287        -1.13842
C         27.06715        43.74431        -1.76096
C         28.05949        45.81203        -0.78789
C         26.81493        46.51488        -1.11575
C         27.86496        48.69728        -0.47424
C         26.73254        47.91094        -1.02529
C         28.11242        50.01532        -1.09574
C         30.18981        22.96510        -0.07031
C         28.93835        22.28221         0.44633
C         30.26284        24.37649         0.57127
C         29.00696        25.17681         0.36546
C         30.28367        27.27574         0.13056
C         29.02287        26.54510         0.14825
C         30.27922        28.69012         0.10422
C         29.02713        29.39752        -0.05298
C         30.35212        31.56879         0.08677
C         28.99890        30.89000         0.22082
C         30.36494        33.03089         0.12295
C         29.15322        33.77865         0.05603
C         30.43653        35.87144         0.24820
C         29.20266        35.18793         0.15303
C         30.48308        37.31802         0.14927
C         29.28322        38.03990        -0.27402
C         30.74421        39.96688        -0.92581
C         29.36907        39.38264        -0.70511
C         30.77216        41.50861        -1.09551
C         29.47601        42.23216        -1.18299
C         30.71131        44.54824        -0.95117
C         29.44131        43.69446        -0.75838
C         30.52799        45.94752        -0.40855
C         29.16298        46.51104        -0.21776
C         30.34621        48.75335         0.32920
C         29.08238        47.94483         0.09997
C         30.44343        50.12847        -0.28507
C         29.31532        50.61929        -1.10616
C         32.60586        20.05510         0.44393
C         31.49753        20.76866         0.12755
C         32.69613        22.87411         0.43181
C         31.48185        22.20447         0.23119
C         32.76084        24.33462         0.20080
C         31.49862        25.11495         0.13182
C         32.74271        27.27192         0.24499
C         31.51642        26.59151         0.22932
C         32.75268        28.68173         0.12698
C         31.52040        29.39015         0.08647
C         32.82983        31.55810        -0.20172
C         31.51826        30.83820         0.03306
C         32.82227        32.92509         0.44347
C         31.58231        33.71879         0.33403
C         32.91105        35.83156         0.53438
C         31.64040        35.13084         0.39359
C         32.91354        37.29408         0.61830
C         31.66709        37.99860         0.37945
C         32.92499        40.24171         0.43495
C         31.69277        39.47080         0.15151
C         33.27491        41.49782        -0.37252
C         32.05532        42.29035        -0.91152
C         33.28789        44.62005        -0.29038
C         32.12531        43.87485        -1.07573
C         32.87544        45.76295         0.66558
C         31.61998        46.53060         0.44334
C         32.91953        48.70480         0.60024
C         31.57934        48.02255         0.88153
C         33.04729        50.02449        -0.02870
C         31.78890        50.76126        -0.50533
C         33.05794        52.86583        -0.48778
C         31.86538        52.22433        -0.58410
C         35.16938        18.61316         0.79642
C         35.09217        19.97040         0.95011
C         33.79086        20.72099         1.09222
C         35.15610        22.87011         0.76518
C         33.91548        22.18302         0.71206
C         35.16589        24.32888         0.64968
C         34.01840        25.04386         0.45389
C         35.29132        27.19653         0.38272
C         33.98402        26.53334         0.71133
C         35.27086        28.56127        -0.23324
C         34.03266        29.39400         0.09737
C         35.41473        31.47511         0.28179
C         34.07622        30.75537         0.10885
C         35.32899        32.96510        -0.05177
C         34.12161        33.65790         0.50364
C         35.40758        35.78542         0.67347
C         34.10062        35.12794         0.51417
C         35.38761        37.29247         0.90893
C         34.09401        37.99564         0.80381
C         35.42287        40.15058         0.86669
C         34.08930        39.48436         1.10521
C         35.42178        41.64311         1.08056
C         34.22150        42.34193         0.43658
C         35.46524        44.39451         0.84660
C         34.24062        43.69502         0.43584
C         35.40428        45.79980         1.25619
C         34.08481        46.50409         1.19163
C         35.44424        48.72336         0.99152
C         34.11721        48.05630         1.10733
C         35.39219        50.23680         1.01768
C         34.24749        50.84414         0.23368
C         35.52902        53.01399        -0.02868
C         34.25851        52.18633        -0.06176
C         35.49285        54.33068         0.71871
C         37.63172        18.56581         0.80078
C         36.41833        17.92978         0.64799
C         37.61187        19.93546         1.35334
C         36.31097        20.72275         1.29598
C         37.65335        22.84067         1.06913
C         36.38234        22.18646         1.04704
C         37.73626        24.28222         0.67656
C         36.46300        25.04475         0.56363
C         37.74431        27.25155         0.63368
C         36.47089        26.53061         0.53266
C         37.69743        28.71439         0.44700
C         36.57365        29.30369        -0.05271
C         37.85959        31.47174        -0.59592
C         36.50006        30.73620        -0.54350
C         37.87326        32.97833        -0.54893
C         36.58380        33.74974        -0.32007
C         37.82469        35.89061         0.20765
C         36.64831        35.16583         0.16002
C         37.84226        37.31590         0.51356
C         36.64719        38.01773         0.69136
C         37.90332        40.20351         0.94993
C         36.60086        39.46219         0.76900
C         37.89757        41.56776         0.29282
C         36.64135        42.31522         0.48602
C         37.94705        44.47090         0.73935
C         36.67574        43.77631         0.67801
C         37.95850        45.87554         0.92710
C         36.70378        46.58462         1.24615
C         37.93314        48.75319         1.02648
C         36.64456        48.05394         1.05854
C         37.93024        50.14811         0.90356
C         36.71736        50.89484         0.69329
C         37.99712        53.01857         0.34893
C         36.74017        52.23874         0.41337
C         37.95143        54.45808         0.61538
C         36.64645        55.01190         0.93324
C         39.97702        16.38763        -1.21338
C         38.86364        16.81162        -0.48520
C         40.09967        18.73422         0.34082
C         38.88031        18.01214         0.25894
C         40.18449        20.00065         1.07075
C         38.87877        20.71291         1.46960
C         40.08880        22.91656         1.72714
C         38.84600        22.16580         1.37492
C         40.11530        24.42080         1.62129
C         39.05726        25.06044         0.73161
C         40.16099        27.29047         1.24476
C         38.90408        26.56439         0.92778
C         40.17941        28.80053         1.11520
C         38.89537        29.61433         0.79825
C         40.37328        31.49730        -0.09339
C         39.12733        30.62864        -0.35722
C         40.42809        32.98942        -0.26186
C         39.15604        33.76849        -0.45783
C         40.37509        35.93947         0.16284
C         39.11434        35.24410        -0.17070
C         40.37273        37.30500         0.41199
C         39.11367        38.04157         0.51167
C         40.36074        40.19211         0.72203
C         39.13800        39.42048         0.62203
C         40.40085        41.57177         0.60598
C         39.20229        42.32757         0.08605
C         40.39184        44.48040         0.56635
C         39.16207        43.77276         0.55929
C         40.38736        45.89711         0.64662
C         39.17564        46.59426         0.84889
C         40.43940        48.69750         1.17405
C         39.18084        48.03376         1.03489
C         40.43276        50.13189         1.52061
C         39.17172        50.88670         1.18451
C         40.46139        53.07614         1.08044
C         39.29192        52.29259         0.72521
C         40.43008        54.45827         0.86505
C         39.16223        55.16656         0.74468
C         40.38688        57.28316         0.94644
C         39.20429        56.60064         0.83503
C         42.26453        16.81388        -2.09166
C         41.17436        17.10495        -1.17886
C         42.52954        18.90900        -0.20667
C         41.27860        18.26901        -0.33835
C         42.60531        20.29467         0.26779
C         41.34735        20.89562         0.83857
C         42.71905        22.87894         1.63827
C         41.40196        22.15660         1.66636
C         42.73037        24.38118         1.72648
C         41.44017        25.15109         1.65970
C         42.66033        27.29525         1.28296
C         41.47076        26.58868         1.25471
C         42.69861        28.74478         1.13788
C         41.50672        29.41923         0.90770
C         42.77027        31.63508         0.85422
C         41.47798        30.88099         0.72323
C         42.80386        33.06180         0.43889
C         41.64871        33.73875         0.15323
C         42.86841        35.91571         0.44351
C         41.67036        35.22473        -0.14350
C         42.84670        37.32389         0.65220
C         41.60347        38.00745         0.66364
C         42.89645        40.20710         1.13524
C         41.57576        39.42097         1.02734
C         42.85277        41.64784         0.90201
C         41.64101        42.32419         0.68477
C         42.88329        44.48506         0.50259
C         41.64126        43.75030         0.53982
C         42.90286        45.90092         0.47107
C         41.62571        46.67560         0.28741
C         42.93791        48.71362         0.96524
C         41.66595        48.06025         0.88460
C         43.01761        50.14326         1.39101
C         41.73221        50.88125         1.63112
C         42.98892        53.10298         1.29615
C         41.69388        52.38829         1.53848
C         42.94018        54.45590         0.62160
C         41.65825        55.20429         0.89082
C         42.90197        57.31270         0.97142
C         41.64860        56.59398         0.92838
C         43.46697        17.41087        -1.95309
C         44.94507        19.18950        -0.85682
C         43.77223        18.18917        -0.68960
C         45.12525        20.05247         0.43157
C         43.90353        20.94696         0.57839
C         45.24482        22.87400         1.41268
C         43.94588        22.20215         1.10024
C         45.23630        24.36769         1.62944
C         43.97286        25.09122         1.18831
C         45.27561        27.32216         1.55865
C         43.94154        26.57260         1.56567
C         45.24726        28.76481         1.26859
C         43.99057        29.46318         1.13871
C         45.29748        31.57718         0.68158
C         44.00886        30.85296         0.97636
C         45.21250        33.06168         0.93132
C         44.06514        33.75438         0.64315
C         45.28712        35.91641         0.68173
C         44.05552        35.20795         0.62823
C         45.28761        37.31543         0.58231
C         44.09035        38.03222         0.74610
C         45.34728        40.14765         0.76783
C         44.15114        39.47628         0.87023
C         45.43454        41.61121         0.86987
C         44.11259        42.38328         0.92129
C         45.36244        44.46235         0.35941
C         44.12603        43.79511         0.55592
C         45.35427        45.87603         0.34081
C         44.13592        46.59608         0.49562
C         45.43031        48.73526         0.89092
C         44.13203        48.03175         0.70478
C         45.44676        50.21736         0.83653
C         44.25865        50.91271         1.08688
C         45.41893        53.06100         0.82529
C         44.24274        52.33223         1.06940
C         45.41339        54.52144         0.86134
C         44.20651        55.23785         0.88907
C         44.11137        56.66181         0.98061
C         47.41769        19.05177        -1.15867
C         46.21388        18.48014        -1.27867
C         47.59674        20.31483        -0.39755
C         46.46318        20.80528         0.44230
C         47.77162        22.98827         0.79778
C         46.52955        22.20222         0.99193
C         47.83674        24.32669         1.44672
C         46.55048        25.11162         1.65365
C         47.76880        27.29082         1.32433
C         46.54622        26.57691         1.41853
C         47.74754        28.75222         1.37239
C         46.50368        29.46049         1.26953
C         47.72209        31.58910         1.46960
C         46.52798        30.88616         1.21849
C         47.70230        33.06652         1.61632
C         46.41856        33.80748         1.34369
C         47.72783        35.89115         0.95265
C         46.52006        35.22195         0.94698
C         47.82763        37.20447         0.20695
C         46.52259        38.04424         0.12010
C         47.80932        40.16183         0.22452
C         46.65025        39.39613         0.81599
C         47.77395        41.52007        -0.02889
C         46.60982        42.30800         0.30109
C         47.81885        44.37596        -0.25020
C         46.58988        43.69602         0.14604
C         47.85385        45.86847        -0.27827
C         46.61755        46.61424         0.10223
C         47.97520        48.77986         0.36565
C         46.71961        48.00100         0.66370
C         47.85167        50.24229         0.16016
C         46.65332        50.92113         0.51880
C         47.83222        53.07701         0.31320
C         46.63622        52.35664         0.55636
C         47.83504        54.49649         0.53303
C         46.68653        55.18187         0.81672
C         49.58961        20.94335        -1.77304
C         48.67972        21.26179        -0.71888
C         50.16202        23.13806        -0.01662
C         48.81957        22.47179         0.01664
C         50.32190        24.46949         0.68101
C         49.11397        25.13611         1.31610
C         50.26193        27.36994         1.35789
C         49.01322        26.61188         1.27808
C         50.24072        28.82379         1.42820
C         48.96003        29.48825         1.49853
C         50.19303        31.64597         1.97094
C         48.94101        30.90098         1.63443
C         50.20810        33.14573         1.86762
C         48.95261        33.84082         1.52715
C         50.18878        35.98426         1.51652
C         48.94241        35.19977         1.30879
C         50.23854        37.41855         1.06016
C         49.01968        38.06233         0.53396
C         50.30405        40.02425        -0.27989
C         49.02733        39.39728         0.20463
C         50.28007        41.52760        -0.35716
C         48.95480        42.17746        -0.71429
C         50.20207        44.38890        -0.95641
C         48.96517        43.68215        -0.53553
C         50.32138        45.84648        -0.82621
C         49.22118        46.50166        -0.01283
C         50.19748        48.76648        -0.98172
C         49.21241        48.04533        -0.07709
C         50.09564        50.27565        -0.94048
C         48.99677        50.95450        -0.28320
C         50.03440        53.14144        -0.78482
C         48.97400        52.39226        -0.20954
C         50.73415        21.63926        -1.99500
C         51.98018        23.80929        -1.72267
C         51.25018        22.65976        -1.02065
C         52.35212        24.97418        -0.90667
C         51.52987        25.31198         0.31819
C         52.60073        27.62987         0.31048
C         51.59376        26.71558         0.83474
C         52.59213        28.96427         0.73498
C         51.44604        29.53617         1.35344
C         52.73322        31.76359         1.58256
C         51.53376        30.90760         1.99067
C         52.73285        33.12469         1.67510
C         51.49166        33.89334         1.74249
C         52.68685        36.12066         1.99241
C         51.47369        35.25975         1.66807
C         52.69306        37.47547         1.31619
C         51.54496        38.09949         0.87772
C         52.71525        40.19189         0.27068
C         51.53961        39.44619         0.35139
C         52.71649        41.49529        -0.29113
C         51.48166        42.18066        -0.55710
C         52.75518        44.36203        -1.06722
C         51.50228        43.58983        -1.03767
C         52.73194        45.72239        -1.28186
C         51.49964        46.49831        -1.13803
C         52.72404        48.64381        -1.84610
C         51.44262        47.98179        -1.42352
C         52.77330        49.81799        -2.54721
C         50.92672        51.09185        -1.71007
C         50.95151        52.50373        -1.58287
C         53.55055        24.59041        -3.43302
C         52.57027        23.68346        -2.96535
C         53.94323        25.71958        -2.69140
C         53.23716        26.01079        -1.48008
C         54.50949        28.08093        -1.20815
C         53.46373        27.20757        -0.78228
C         54.91740        29.14153        -0.21176
C         53.66298        29.92459         0.24807
C         55.18794        31.85072         0.86929
C         54.01581        30.99225         1.32445
C         55.22042        33.20699         1.09376
C         54.02237        33.87972         1.66514
C         55.23308        36.14389         1.41099
C         54.01665        35.37647         1.79944
C         55.23137        37.54735         1.40174
C         53.92599        38.30740         1.56661
C         55.08599        40.48963         1.10794
C         54.01660        39.49765         0.59833
C         55.21290        41.66316         0.14038
C         53.99536        42.18246        -0.54650
C         55.29710        44.32753        -1.00686
C         54.02039        43.53575        -1.24491
C         55.31567        45.64833        -1.72646
C         54.03965        46.49839        -1.28318
C         55.26374        48.61823        -1.99492
C         53.95743        47.77008        -2.14322
C         55.18642        49.77493        -2.96134
C         53.98202        50.32203        -3.19811
C         55.88123        26.29583        -4.18850
C         55.00780        26.60622        -3.11276
C         56.29685        28.73050        -2.80659
C         55.25494        27.78789        -2.34793
C         56.68383        29.92633        -1.90222
C         55.99732        30.08003        -0.63759
C         57.43012        32.08115        -0.27393
C         56.41997        31.13752         0.34242
C         57.48913        33.42128         0.16210
C         56.41131        33.99859         0.85832
C         57.64414        36.15235         1.00121
C         56.43560        35.43326         1.12997
C         57.65582        37.57597         0.98248
C         56.41850        38.28473         1.16143
C         57.58631        40.44478         0.92831
C         56.42192        39.74202         1.13541
C         57.59396        41.93322         0.93862
C         56.34253        42.59111         0.41772
C         57.62397        44.64011        -0.21980
C         56.38519        43.88307        -0.30104
C         57.63749        45.97946        -0.76615
C         56.54519        46.47929        -1.47939
C         57.75783        48.66454        -1.74201
C         56.59368        47.81484        -2.18103
C         57.00719        27.05946        -4.47327
C         58.46984        29.00431        -3.97897
C         57.29905        28.25276        -3.77276
C         58.81207        30.09216        -3.16941
C         58.01786        30.52430        -2.09044
C         59.61473        32.33891        -1.38689
C         58.36190        31.61107        -1.23498
C         59.78226        33.57010        -0.86269
C         58.60125        34.33368        -0.33138
C         60.11881        36.19519         0.54250
C         58.91251        35.34855         0.79870
C         60.06600        37.55944         0.47516
C         58.85853        38.28575         0.67455
C         60.02377        40.55929         0.27403
C         58.75528        39.74343         0.27678
C         60.06179        41.88407         0.45705
C         58.90449        42.70354         0.97809
C         59.93887        44.91721         0.46986
C         58.79822        44.09930         0.34846
C         59.94081        46.24437         0.03357
C         58.81459        46.79179        -0.58734
C         58.79556        48.16520        -1.03793
O         41.66754        21.16688        -0.54954
O         46.22241        48.14953         2.01734
O         42.23520        22.17389         2.83963
O         40.80320        32.07246        -1.36963
O         25.34243        27.75977        -2.09572
O         54.29468        34.51536         2.97300
O         37.92400        32.24868        -1.82667
O         41.81038        31.53424         1.98732
O         36.99168        41.75176        -0.83571
O         34.10829        45.35026        -1.17043
O         27.10182        35.77850         1.33829
O         36.84108        20.19709         2.56565
O         50.28554        48.22380        -2.32411
O         42.17276        24.94566         2.92094
O         44.94141        42.13683         2.13932
O         45.80639        24.75460         2.88490
O         39.76317        20.08448         2.45440
O         50.07258        32.46322         3.18772
O         28.00639        48.44709         0.95047
O         39.79740        23.79709         2.87693
O         31.79954        45.62004         1.61607
O         55.02517        41.32563        -1.26527
O         42.18444        39.73236         2.32502
O         32.61401        50.04458        -1.46461
O         42.41766        53.05986         2.62915
O         48.74713        24.49237         2.57700
O         39.18374        34.72625        -1.57431
O         37.15433        24.50129        -0.65969
O         56.65428        42.59863         1.84370
O         52.78035        24.60028         0.48442
O         35.61525        33.44803        -1.39344
O         31.65414        41.80060        -2.23464
O         47.06295        46.52512        -1.31223
O         50.01060        37.06630         2.49024
O         55.78265        30.06313        -3.08859
O         33.87076        47.29210         2.36711
O         39.54294        50.60632         2.58352
O         46.83565        33.51536         2.72424
O         26.97098        25.09239         1.70647
O         35.52381        36.34813         2.03005
O         40.07102        28.16685         2.41932
O         32.12341        24.68102        -1.12521
O         47.52207        20.00711         1.06615
O         33.54932        33.02958         1.71125
O         50.70136        23.23850         1.34347
O         46.06026        22.19191         2.39757
O         49.13575        48.56239         1.28275
O         24.47016        33.43013         0.90083
O         38.57031        30.40019         1.90306
O         36.10893        46.09316         2.49932
O         51.28670        26.79398         2.23702
O         30.09128        49.95232         1.11718
O         50.68730        43.84289        -2.24039
O         42.51484        50.37872         2.75429
O         51.69383        50.64609        -2.78086
O         38.90925        52.51166        -0.68071
O         27.39278        43.02060        -3.01119
O         31.77232        40.36154         1.32710
O         44.53035        26.95028         2.80767
O         30.67870        45.67643        -1.85545
O         42.94197        54.16131        -0.81912
H         42.88047        55.01432        -1.29878
O         30.04033        23.06808        -1.50107
H         30.83510        23.55313        -1.83553
O         35.99114        30.69870        -1.89943
H         36.33057        31.51859        -2.34423
O         48.15236        36.74724        -1.15593
H         48.47049        37.52786        -1.66246
O         46.27235        38.36252        -1.27067
H         46.21160        37.51510        -1.76307
O         32.51306        44.07233        -2.43211
H         31.87687        43.60404        -3.01345
O         27.13234        29.49660        -2.40405
H         26.76792        28.68424        -2.82927
O         57.08361        30.47561         1.49758
H         56.86921        30.99558         2.30244
O         55.32413        49.16914        -0.64801
H         54.56896        49.78657        -0.54093
O         54.45089        38.87530        -0.63849
H         54.55405        39.59295        -1.31009
O         53.97626        43.18523        -2.67875
H         54.54122        42.38373        -2.78494
O         46.92814        39.13627         2.21224
H         46.81375        39.96784         2.71874
O         28.41027        31.71967        -1.98749
H         29.36330        31.95060        -1.98570
O         23.44001        35.81154         0.57464
H         23.84381        35.33127         1.33392
O         58.38735        39.67609        -1.15840
H         57.60737        39.08402        -1.23670
O         53.75872        47.43271        -3.52512
H         54.36427        46.69253        -3.77089
O         32.90070        31.82866        -1.64096
H         33.18890        31.00671        -2.09269
O         45.11963        19.20970         1.60506
H         46.04294        19.18914         1.95456
O         34.03135        40.99800        -1.49874
H         34.39525        41.76680        -1.98883
O         41.51758        46.90424        -1.17924
H         41.44199        46.02431        -1.60776
O         59.17500        34.54870         1.98372
H         59.32439        35.15781         2.73640
O         41.84589        35.35188        -1.60049
H         41.00070        35.03771        -2.01105
O         39.67395        24.93037        -0.59117
H         38.92844        24.97938        -1.23888
O         23.74492        30.85497         1.11739
H         23.82983        31.78770         1.43683
O         44.60275        20.14088        -1.89486
H         44.23565        19.64780        -2.65891
O         44.15499        17.17377         0.27429
H         44.44608        17.65028         1.09311
O         43.95116        24.99078        -0.26003
H         43.09545        25.33817        -0.59238
O         52.28273        21.98610        -0.26342
H         52.42124        22.52057         0.55724
O         49.55273        46.10223         1.34411
H         49.45024        46.90534         1.91485
O         54.23636        46.85173         0.09807
H         54.83381        47.64091         0.14337
O         56.77431        47.59034        -3.60969
H         56.44166        46.68738        -3.82204
O         35.78999        31.39468         1.66501
H         35.06826        31.79676         2.20141
O         39.38884        29.87066        -1.54606
H         39.57308        30.52394        -2.25900
O         58.07981        35.11913        -1.44093
H         57.89011        34.50473        -2.18075
O         35.41196        41.89557         2.50040
H         34.84244        41.20378         2.91671
O         31.37168        48.06054         2.30321
H         31.99620        47.41936         2.72158
O         52.58202        36.39003         3.42740
H         52.95216        35.59506         3.88218
O         38.01490        40.50542         2.37605
H         37.97805        39.66352         2.87701
O         30.42080        24.18724         2.00912
H         29.53032        24.14350         2.41820
O         31.19027        39.35945        -2.16071
H         31.73233        40.03703        -2.63512
O         29.41966        43.56689         0.71633
H         28.58837        43.12078         0.98425
O         53.80535        38.73354         2.95069
H         53.36290        37.99207         3.44614
O         50.32943        39.60951        -1.71358
H         49.71713        40.23539        -2.18119
O         35.11289        50.58395         2.41450
H         35.72836        50.07617         2.98560
O         28.56670        31.03943         1.60168
H         29.22294        30.59860         2.18084
O         35.08790        28.25356        -1.65744
H         35.40498        29.04707        -2.15775
O         55.28845        45.37269        -3.16395
H         54.71146        44.56895        -3.30123
O         33.50961        20.71616         2.54030
H         32.70475        21.25838         2.68405
O         48.77975        41.91970        -2.15899
H         49.40859        42.53661        -2.61631
O         35.77481        53.37562        -1.42758
H         35.98989        52.55561        -1.92043
O         33.86332        26.64217         2.18241
H         34.72162        26.39046         2.58596
O         59.21159        42.92695         2.38223
H         58.35942        43.15121         2.82095
O         33.88136        39.59092         2.54814
H         32.90550        39.68729         2.68008
O         53.13540        30.66662        -0.87389
H         53.12484        30.08317        -1.66190
O         55.42392        28.38901         0.92333
H         55.95764        29.01199         1.48280
O         51.82335        30.59587         3.39427
H         51.39708        31.30900         3.93039
O         54.68895        41.07519         2.34756
H         54.46278        40.35101         2.97990
O         39.41742        42.42968        -1.35502
H         38.51903        42.42088        -1.76596
O         54.43056        30.34053         2.54403
H         53.62048        30.16669         3.08686
O         45.45596        31.48335        -0.79990
H         45.46677        30.53010        -1.03287
H         21.92707        26.77985        -0.42791
H         21.99997        29.24423        -0.41708
H         22.18414        31.10108        -1.45925
H         22.19568        33.51442        -1.55254
H         22.53921        35.24664        -2.24574
H         22.82294        37.56492        -2.93508
H         22.50750        39.52989        -2.53570
H         22.53635        41.94647        -2.81050
H         22.50240        43.83496        -2.81234
H         22.40454        46.27590        -2.58193
H         25.17389        23.40051         0.37903
H         23.09526        24.59160        -0.21179
H         25.47674        49.67901        -1.24288
H         23.47424        48.42380        -1.98212
H         26.93263        22.45588         1.10486
H         27.31829        50.41765        -1.74219
H         28.92519        21.18580         0.53911
H         29.46630        51.52547        -1.71052
H         32.58554        18.96006         0.35819
H         30.60560        20.25448        -0.25833
H         33.10511        53.95661        -0.61532
H         30.93476        52.79477        -0.71577
H         34.25702        18.01635         0.66170
H         34.52669        54.76980         1.00663
H         36.37532        16.88398         0.31493
H         36.60393        56.00538         1.40460
H         39.90002        15.49188        -1.84616
H         37.94073        16.22190        -0.55621
H         40.38650        58.38159         0.99791
H         38.26116        57.16220         0.77962
H         42.06845        16.13153        -2.93272
H         42.87253        58.40939         1.04462
H         44.28013        17.19031        -2.66120
H         45.02916        57.25716         1.08958
H         48.31920        18.51989        -1.49762
H         46.12638        17.49294        -1.75633
H         48.77990        55.05325         0.47683
H         46.73644        56.27015         0.95714
H         49.33622        20.10621        -2.43976
H         50.05423        54.23547        -0.70766
H         51.40347        21.31371        -2.80224
H         51.69126        53.07166        -2.16171
H         54.02345        24.38009        -4.40149
H         52.33416        22.82326        -3.60641
H         56.09868        50.16590        -3.43312
H         53.86651        51.18425        -3.86992
H         55.70957        25.38176        -4.77309
H         57.77893        49.70989        -2.08319
H         57.69208        26.73384        -5.26968
H         59.17259        28.68102        -4.76023
H         59.77435        30.58960        -3.35473
H         60.45616        31.83636        -1.88611
H         60.74850        34.08554        -0.96198
H         61.08906        35.68655         0.44393
H         60.99366        38.11235         0.26867
H         60.94203        40.05318        -0.06075
H         61.02536        42.40794         0.35578
H         60.83541        44.50935         0.95664
H         60.83767        46.86464         0.17315
H         59.65854        48.80167        -0.79043
