         420
 CSIRO Nanostructure Databank - Neutral Graphene Oxide Data Set
C         28.20841        27.58035        -1.21240
C         28.08571        28.95988        -0.79188
C         27.04430        29.80125        -1.23263
C         27.83776        31.65047         0.15381
C         26.96341        31.13683        -0.83220
C         27.89062        33.07259         0.51643
C         26.70782        33.82494         0.35519
C         27.89521        35.91721         0.71910
C         26.69830        35.20199         0.46966
C         27.89271        37.37514         0.72572
C         26.70092        38.11122         0.66478
C         27.91085        40.23756         0.53374
C         26.70449        39.50028         0.57932
C         27.90270        41.68798         0.39804
C         26.70327        42.41643         0.30112
C         27.90416        44.52845         0.18288
C         26.70397        43.80699         0.18814
C         27.89774        45.97214         0.11010
C         30.29350        27.32956         0.10987
C         29.19661        26.79281        -0.72722
C         30.30030        28.79992         0.37110
C         29.03743        29.47216         0.13384
C         30.51343        31.70620         1.19129
C         28.75444        30.72959         0.69574
C         30.39181        33.08995         0.96712
C         29.10008        33.76597         0.86449
C         30.35937        35.92582         1.27155
C         29.08907        35.18706         0.91057
C         30.33706        37.39625         0.91943
C         29.14302        38.09461         0.75735
C         30.38604        40.25989         0.57910
C         29.14025        39.53987         0.63204
C         30.38104        41.69205         0.43115
C         29.14418        42.39548         0.35881
C         30.37536        44.53867         0.26923
C         29.14827        43.82524         0.26646
C         30.34498        46.01611         0.32125
C         29.04414        46.68820         0.19099
C         32.83356        24.52848        -0.47974
C         31.65160        25.14903        -0.28065
C         32.86833        27.24999         0.60617
C         31.55964        26.51619         0.27452
C         32.75556        28.73703         0.25330
C         31.50243        29.48308         0.60705
C         32.83949        31.63949         0.53244
C         31.61787        30.91712         0.77777
C         32.83845        33.07536         0.60182
C         31.61746        33.79807         0.76310
C         32.81052        35.90400         0.56680
C         31.61681        35.21724         0.78709
C         32.77518        37.37203         0.39913
C         31.64060        38.13004         1.05749
C         32.84883        40.27093         0.48061
C         31.61242        39.57701         0.64354
C         32.85214        41.70281         0.37468
C         31.61129        42.40500         0.37053
C         32.85303        44.51619         0.06671
C         31.60963        43.83792         0.26806
C         32.81923        45.92610        -0.35878
C         31.63451        46.76244        -0.01420
C         32.84531        48.78093        -0.75580
C         31.66592        48.15680        -0.49608
C         35.41678        23.08031        -0.71263
C         35.31816        24.51164        -0.47509
C         34.10621        25.20854        -0.33388
C         35.27682        27.36882        -0.15867
C         34.10452        26.61712        -0.02674
C         35.30990        28.77322         0.05783
C         34.03637        29.50815         0.08330
C         35.30455        31.64460         0.33978
C         34.05950        30.95957         0.30836
C         35.31234        33.08130         0.41766
C         34.06568        33.79170         0.47498
C         35.29134        35.94000         0.31567
C         34.04890        35.21326         0.41631
C         35.31692        37.35821         0.24297
C         34.05820        38.11249         0.18808
C         35.31897        40.25406         0.31936
C         34.08240        39.57165         0.38893
C         35.32767        41.69394         0.29446
C         34.08721        42.40355         0.26674
C         35.33923        44.53328        -0.04500
C         34.08018        43.82554         0.07421
C         35.37026        45.92841        -0.29478
C         34.13207        46.65378        -0.60699
C         35.33791        48.81973        -0.53556
C         34.12862        48.12966        -0.61166
C         35.37881        50.27235        -0.58253
C         37.79306        23.13185        -0.01688
C         36.59589        22.41996        -0.60088
C         37.75974        24.58276        -0.42675
C         36.56581        25.24475        -0.48029
C         37.79609        27.42477        -0.29167
C         36.52166        26.73010        -0.74186
C         37.76735        28.78051         0.08357
C         36.53249        29.49041         0.14229
C         37.78432        31.63581         0.34725
C         36.53493        30.92499         0.29181
C         37.78600        33.06975         0.40600
C         36.53413        33.79027         0.42934
C         37.74498        35.95348         0.42442
C         36.52292        35.22708         0.40856
C         37.75543        37.33930         0.28395
C         36.53400        38.07301         0.23514
C         37.78811        40.23454         0.28301
C         36.54727        39.52481         0.24426
C         37.79820        41.67606         0.33521
C         36.56027        42.39821         0.26973
C         37.79684        44.55304         0.20187
C         36.56722        43.82978         0.14994
C         37.78292        45.96066         0.08328
C         36.58058        46.65578        -0.21619
C         37.80493        48.79344        -0.43749
C         36.58746        48.09914        -0.39156
C         37.83180        50.27149        -0.52126
C         36.53847        50.96572        -0.57405
C         40.36462        20.40357         0.54725
C         39.20925        21.07800         0.30421
C         40.28482        23.10738        -0.57423
C         39.14466        22.45247        -0.16527
C         40.26678        24.55495        -0.99613
C         38.99358        25.31119        -0.78236
C         40.26527        27.42777        -0.23674
C         39.01805        26.74823        -0.43579
C         40.28959        28.78773         0.11287
C         39.02190        29.45252         0.57888
C         40.24977        31.63986         0.38994
C         39.01941        30.94388         0.37811
C         40.24670        33.07136         0.45950
C         39.01278        33.76176         0.48372
C         40.27755        35.95063         0.52519
C         38.99685        35.22484         0.83820
C         40.28245        37.32942         0.36642
C         39.03328        38.05627        -0.05969
C         40.24486        40.21424         0.33973
C         39.02079        39.52793         0.26618
C         40.25876        41.64825         0.41517
C         39.02977        42.37508         0.39188
C         40.26696        44.50645         0.37330
C         39.05649        43.83233         0.35719
C         40.33648        45.97784         0.33398
C         39.02762        46.73677         0.22319
C         40.27029        48.71439        -0.65458
C         39.05535        48.11294        -0.30685
C         40.21973        50.00094        -1.46247
C         39.10780        50.92907        -0.99101
C         40.28019        52.83619        -1.98369
C         39.11765        52.29733        -1.56445
C         42.95884        20.39224         0.42007
C         41.66076        21.08418         0.45359
C         42.81892        22.78658        -0.96174
C         41.58838        22.46219        -0.26544
C         42.73662        24.85256        -1.30632
C         41.51051        25.38555        -0.91394
C         42.74602        27.41604        -0.31386
C         41.50206        26.73189        -0.47503
C         42.75021        28.81993        -0.00642
C         41.52083        29.50400         0.16772
C         42.72963        31.64885         0.37235
C         41.50730        30.93471         0.34417
C         42.72517        33.08182         0.50173
C         41.49851        33.78548         0.54690
C         42.73361        35.92592         0.66445
C         41.50672        35.22208         0.60349
C         42.72918        37.36246         0.64766
C         41.50459        38.05814         0.43133
C         42.71714        40.18587         0.43317
C         41.49204        39.48647         0.38203
C         42.71425        41.61950         0.39508
C         41.50629        42.32746         0.43933
C         42.78091        44.46582         0.09725
C         41.55893        43.80949         0.70483
C         42.74163        45.84455        -0.31696
C         41.56130        46.61932        -0.19561
C         42.67281        48.57798        -1.20102
C         41.50095        47.98580        -0.61116
C         42.75694        50.00232        -1.52251
C         41.54348        50.72681        -1.58666
C         42.76278        52.77708        -2.06434
C         41.53795        52.10349        -1.88621
C         44.10748        21.05949         0.08851
C         45.25425        23.14256        -0.95058
C         44.07224        22.33657        -0.59270
C         45.22034        24.57397        -0.97968
C         43.98792        25.37724        -0.90338
C         45.26775        27.35237        -0.06102
C         43.96858        26.70586        -0.44719
C         45.23092        28.86133        -0.07643
C         44.00038        29.53739         0.06713
C         45.21186        31.66862         0.35490
C         43.97944        30.95624         0.25881
C         45.21155        33.08975         0.54181
C         43.97113        33.79344         0.57664
C         45.20950        35.90433         0.88397
C         43.97308        35.21001         0.69923
C         45.18172        37.37218         1.25738
C         43.94126        38.08354         0.77728
C         45.19513        40.20746         0.61434
C         43.94915        39.47490         0.60274
C         45.16844        41.61841         0.44213
C         43.96598        42.33007         0.31736
C         45.22153        44.33063        -0.58471
C         43.95433        43.74413         0.01068
C         45.21946        45.83109        -0.79863
C         43.93246        46.43776        -0.87769
C         45.53222        48.74972        -1.55609
C         43.73498        47.71648        -1.47110
C         45.30149        50.11195        -1.30582
C         43.99862        50.71812        -1.61540
C         43.96155        52.10098        -1.89171
C         47.67351        23.23072        -1.31189
C         46.50519        22.50984        -1.11474
C         47.67581        24.64268        -1.24694
C         46.44299        25.29307        -1.03042
C         47.70517        27.53574        -0.82482
C         46.40349        26.77073        -0.88060
C         47.70899        28.90677        -0.27255
C         46.46545        29.57177        -0.04129
C         47.68465        31.68391         0.37953
C         46.44916        30.97737         0.23459
C         47.68200        33.08358         0.68720
C         46.44465        33.79367         0.70980
C         47.65724        35.94721         1.36298
C         46.41084        35.21108         0.92436
C         47.66713        37.40450         0.94305
C         46.46276        38.09710         0.89861
C         47.68074        40.24096         0.63135
C         46.43083        39.51447         0.70806
C         47.69335        41.63419         0.56781
C         46.43197        42.36874         0.53611
C         47.74258        44.46290        -0.19219
C         46.44646        43.81996         0.14567
C         47.70917        45.87075        -0.54758
C         46.48309        46.53226        -0.85197
C         47.67250        48.73088        -0.48381
C         46.56636        47.98440        -0.98005
C         47.53716        50.13845        -0.34973
C         46.35940        50.80356        -0.66817
C         50.16323        24.78858        -1.59238
C         48.93067        25.40870        -1.26916
C         50.23553        27.41240        -0.50822
C         48.94343        26.77662        -0.94474
C         50.20024        28.92274        -0.40188
C         48.93664        29.60632        -0.16976
C         50.15560        31.73923         0.28946
C         48.90559        30.98972         0.15946
C         50.12936        33.04638         0.96164
C         48.93175        33.76974         0.96628
C         50.13421        35.91217         0.95469
C         48.94458        35.21334         1.08335
C         50.17115        37.35865         0.79170
C         48.91300        38.10019         0.76147
C         50.16173        40.22356         0.37031
C         48.90970        39.49117         0.62094
C         50.20979        41.69634         0.48484
C         48.94087        42.46028         0.73895
C         50.21779        44.43101        -0.40244
C         48.91509        43.79096         0.01731
C         50.17715        45.92695        -0.20327
C         48.93809        46.61102        -0.35881
C         50.11332        48.71609         0.06576
C         48.91131        48.03128        -0.22741
C         51.34587        25.55725        -1.71542
C         52.62067        27.73520        -1.53030
C         51.41582        26.85815        -1.27183
C         52.66964        28.94446        -0.61607
C         51.41276        29.57786        -0.28061
C         52.67143        31.49150         0.82688
C         51.45286        31.01350         0.10228
C         52.73083        32.90631         1.43378
C         51.39541        33.67722         1.34739
C         52.70188        35.82379         0.82688
C         51.40373        35.19402         1.19583
C         52.67447        37.30237         0.63567
C         51.38315        38.02137         0.71262
C         52.72876        40.19919         0.60419
C         51.45087        39.46043         0.41852
C         52.68093        41.67408         0.87742
C         51.40784        42.37233         0.43272
C         52.65053        44.48902         0.23567
C         51.44006        43.78131         0.20045
C         52.65415        45.91770         0.06921
C         51.37589        46.63195         0.00993
C         51.31485        48.04028         0.16961
C         55.09807        27.57351        -1.22614
C         53.93364        26.99267        -1.57959
C         55.13747        28.90197        -0.64204
C         53.88271        29.54970        -0.33490
C         55.22673        31.52060         0.58333
C         53.94670        30.77615         0.50061
C         55.20288        32.96566         0.83862
C         53.97905        33.67807         0.99365
C         55.20660        35.81499         0.91671
C         53.99081        35.08982         1.00271
C         55.21991        37.30934         1.02132
C         53.92883        38.06780         0.90215
C         55.19362        40.24535         0.66700
C         53.93136        39.53706         0.67075
C         55.18897        41.66605         0.51328
C         53.95155        42.38540         0.51341
C         55.13860        44.51130         0.20743
C         53.91258        43.77822         0.35362
C         55.09753        45.90316         0.03249
C         53.87813        46.59091        -0.01539
C         56.33166        29.52024        -0.31548
C         56.36958        30.84743         0.20386
C         56.40254        33.70650         0.77828
C         56.40811        35.09384         0.85063
C         56.43879        38.10372         0.76857
C         56.40319        39.46458         0.66195
C         56.39815        42.42635         0.36738
C         56.37443        43.79010         0.23632
O         44.66342        48.10358        -2.44919
O         33.13619        37.76762        -0.95090
O         30.57691        26.56395         1.36471
O         39.72233        46.60565         1.51461
O         38.81131        50.87546         0.42715
O         50.99481        31.88442        -0.97814
O         31.21568        46.59550         1.37614
O         53.20720        30.52354         1.77746
O         41.75869        22.34331         1.18784
O         33.32480        46.09929        -1.71756
O         42.72231        23.66161        -2.05140
O         39.43704        24.91165        -2.15002
O         51.32506        34.56540         2.50543
O         33.18490        29.08251        -1.09173
O         46.81937        27.49879        -2.04868
O         54.47982        37.75917         2.23184
O         52.68982        36.40112        -0.53540
O         50.82408        39.77794        -0.89131
O         29.45322        31.07425         1.86205
O         46.31901        43.50112         1.55430
O         47.55465        35.97592         2.84421
H         48.43347        36.23006         3.20082
O         52.94593        32.74569         2.85623
H         53.36366        31.86080         2.98985
O         38.93076        35.24380         2.31839
H         39.68997        34.71929         2.65230
O         33.05701        27.16574         2.04049
H         32.16709        27.00523         2.43467
O         52.58329        41.78157         2.35704
H         53.41599        41.41911         2.73000
O         45.35302        43.74289        -1.92963
H         44.63743        44.11218        -2.48935
O         39.01099        29.27039         2.05733
H         38.98031        28.30483         2.22876
O         39.08455        38.00904        -1.54045
H         38.29794        38.49108        -1.87492
O         50.43863        26.97297         0.90220
H         50.44990        25.99128         0.89819
O         37.57750        23.12042         1.44362
H         36.68306        23.48770         1.61092
O         45.56782        26.95539         1.31967
H         44.83338        27.26820         1.88893
O         39.83077        49.60475        -2.82096
H         40.58820        49.12809        -3.22164
O         36.42857        26.90535        -2.18806
H         36.35032        27.86568        -2.36841
O         30.45094        35.86557         2.74192
H         31.18384        36.47943         2.99717
O         41.71834        43.96245         2.16154
H         40.86501        43.72632         2.58288
O         50.34015        44.20025        -1.85407
H         49.56536        44.62189        -2.28347
O         31.99686        38.12106         2.50349
H         31.38938        38.74564         2.95582
O         52.41282        28.27651        -2.88449
H         53.13827        28.91114        -3.06520
O         45.10901        37.40390         2.72254
H         45.90242        36.91206         3.05367
O         48.97055        42.81291         2.17035
H         48.08767        43.21229         2.37055
H         27.43828        27.16088        -1.87596
H         26.32151        29.41273        -1.96406
H         26.20951        31.78949        -1.29382
H         25.76787        33.30230         0.12980
H         25.74921        35.73448         0.32815
H         25.72988        37.59927         0.68488
H         25.73775        40.01761         0.53115
H         25.73576        41.89809         0.31591
H         25.74936        44.34777         0.11684
H         26.92781        46.48403         0.02555
H         29.21485        25.72659        -0.98946
H         29.01676        47.78654         0.19809
H         32.83105        23.48289        -0.81648
H         30.71735        24.58729        -0.41560
H         32.81795        49.84074        -1.04604
H         30.72580        48.72226        -0.56268
H         34.52103        22.52813        -1.03222
H         34.43073        50.82561        -0.61576
H         36.64689        21.34057        -0.80584
H         36.52737        52.06447        -0.57769
H         40.34174        19.33552         0.81032
H         38.25227        20.55666         0.45441
H         40.31388        53.86776        -2.36464
H         38.19003        52.88727        -1.57632
H         43.00597        19.34938         0.76571
H         42.76229        53.84952        -2.30540
H         45.07905        20.56045         0.21891
H         44.90833        52.65007        -1.99200
H         48.61121        22.68076        -1.46746
H         46.55205        21.41171        -1.11306
H         48.36523        50.71951         0.07770
H         46.26374        51.87525        -0.44472
H         50.19248        23.73528        -1.89898
H         50.10599        49.80762         0.18702
H         52.21105        25.08741        -2.20470
H         52.22879        48.61038         0.38393
H         56.05013        27.03459        -1.34680
H         53.94937        25.98798        -2.02583
H         56.03905        46.46145        -0.07290
H         53.89886        47.68078        -0.15259
H         57.28129        29.01238        -0.53607
H         57.35165        31.33653         0.25915
H         57.36562        33.18796         0.68612
H         57.37110        35.62074         0.82484
H         57.40720        37.59139         0.68423
H         57.35998        39.98770         0.52300
H         57.36783        41.91046         0.36786
H         57.31542        44.35007         0.13278
