         490
 CSIRO Nanostructure Databank - Neutral Graphene Oxide Data Set
C         37.95276        49.99233         1.49591
C         36.96811        50.55151         2.31370
C         38.06047        52.69967         2.15485
C         37.02126        51.91039         2.63692
C         40.07436        48.69435        -0.04130
C         40.02250        50.19213         0.01130
C         38.99871        50.77232         0.98957
C         40.18846        52.96934         0.87472
C         39.06609        52.15389         1.32600
C         40.27894        54.34567         1.05406
C         42.52237        48.64744         0.17229
C         41.24429        48.00749        -0.00279
C         42.56118        50.08387         0.28093
C         41.36971        50.80286         0.27190
C         42.68519        53.00507         0.27848
C         41.35952        52.27320         0.32016
C         42.71649        54.42910         0.66975
C         41.48918        55.06130         0.91085
C         44.99301        45.80773         0.46336
C         43.79345        46.47295         0.26491
C         44.91040        48.59556         0.72726
C         43.72422        47.89498         0.35304
C         45.03815        50.02233         0.50120
C         43.84233        50.77630         0.37124
C         45.15746        52.83977         0.42366
C         43.91934        52.19453         0.35540
C         45.26375        54.29711         0.77738
C         43.97900        55.09074         0.67494
C         45.33219        57.11829         0.56802
C         44.10003        56.48973         0.71968
C         47.45712        44.40062         1.37475
C         47.43965        45.77260         1.01135
C         46.13619        46.46682         0.98443
C         47.50432        48.47203        -0.45359
C         45.98119        47.84698         1.28678
C         47.48892        49.94840        -0.16348
C         46.29603        50.66792         0.26311
C         47.58113        52.78593        -0.05133
C         46.35617        52.09208         0.25471
C         47.58146        54.18137        -0.21557
C         46.46220        54.97929         0.15528
C         47.73090        57.11239        -0.09451
C         46.51215        56.39870         0.21664
C         47.88434        58.48895         0.00768
C         49.86351        44.25907         1.01056
C         48.62573        43.66759         1.37167
C         49.86935        45.63143         0.61814
C         48.64958        46.36450         0.58166
C         49.87099        48.28220        -0.67912
C         48.73170        47.83065         0.23116
C         49.77330        49.75950        -1.15950
C         48.70424        50.54986        -0.38523
C         50.02064        52.63797        -0.82615
C         48.87759        52.01334        -0.07581
C         50.03290        54.10923        -1.19723
C         48.74265        54.86192        -0.84629
C         50.16704        57.00296        -0.83079
C         48.83880        56.35195        -0.70791
C         50.19255        58.44371        -0.85535
C         49.05851        59.14250        -0.42903
C         52.29694        41.40249         1.26577
C         51.11497        42.10723         1.26593
C         52.33559        44.17908         0.81343
C         51.09661        43.51166         1.04240
C         52.31888        45.55522         0.40123
C         51.12978        46.24977         0.26984
C         52.39238        48.37929        -0.37664
C         51.16052        47.57488        -0.41406
C         52.39730        49.72641        -0.67149
C         51.20385        50.43603        -1.32238
C         52.44450        52.64946        -1.20521
C         51.17448        51.93486        -1.03024
C         52.51976        53.99510        -0.96275
C         51.27356        54.77122        -0.56252
C         52.59651        56.91487        -1.09805
C         51.33463        56.25841        -0.87168
C         52.61757        58.33335        -1.37038
C         51.42503        59.10410        -1.23697
C         52.66234        61.11248        -1.86148
C         51.48198        60.49371        -1.47325
C         54.86258        39.95803         0.96165
C         54.78678        41.33695         1.20303
C         53.55080        42.06644         1.13665
C         54.83973        44.17732         0.78530
C         53.56693        43.47095         0.92994
C         54.84228        45.51225         0.41986
C         53.59726        46.20355        -0.08402
C         54.89941        48.39928        -0.09807
C         53.59934        47.70778         0.23154
C         54.88318        49.77815        -0.46371
C         53.65663        50.43551        -0.73328
C         55.02250        52.53585        -1.30543
C         53.67837        51.80316        -1.28625
C         54.99535        54.05338        -1.48022
C         53.82849        54.71077        -0.72313
C         55.02714        56.85148        -1.35969
C         53.79919        56.18859        -1.09431
C         55.06662        58.23360        -1.68980
C         53.83560        58.98109        -1.71960
C         55.08467        61.00356        -2.46705
C         53.85886        60.37858        -2.00845
C         55.11340        62.29002        -2.96911
C         57.30888        39.94600         1.22226
C         56.07012        39.26880         0.97155
C         57.29261        41.30807         1.47495
C         56.00898        42.08079         1.66387
C         57.30636        44.13666         1.03527
C         56.08127        43.49457         1.11521
C         57.39736        45.48987         0.42393
C         56.10818        46.22614         0.18758
C         57.31220        48.42528         0.33253
C         56.11069        47.71378         0.13256
C         57.32772        49.85343         0.12234
C         56.13700        50.51517        -0.42730
C         57.31069        52.69421        -0.11358
C         56.16828        51.87428        -0.68064
C         57.41906        54.09679        -0.64777
C         56.27258        54.75211        -1.07577
C         57.50302        56.87320        -1.21770
C         56.27819        56.15826        -1.24437
C         57.54053        58.24701        -1.61526
C         56.30978        58.86897        -1.92300
C         57.63744        60.91246        -2.61869
C         56.32487        60.14746        -2.68528
C         57.51719        62.14114        -3.33191
C         56.31390        62.80826        -3.52152
C         59.88438        37.15147         0.79962
C         58.65330        37.83463         0.97579
C         59.81087        39.93926         1.32651
C         58.58938        39.21478         1.19716
C         59.81725        41.33549         1.47916
C         58.54166        42.04124         1.86502
C         59.72065        44.19489         1.52374
C         58.53836        43.48987         1.43391
C         59.64302        45.69887         1.56707
C         58.72043        46.25639         0.47117
C         59.66970        48.48847         1.01724
C         58.56467        47.76256         0.64995
C         59.57560        49.99071         1.20279
C         58.49026        50.56766         0.34124
C         59.80179        52.74438         0.22335
C         58.62226        51.93800        -0.26042
C         59.79595        54.11340         0.03030
C         58.63148        54.81120        -0.46343
C         59.89830        56.94466        -0.76520
C         58.69422        56.19617        -0.82195
C         59.96111        58.28928        -1.21102
C         58.79076        58.96650        -1.67111
C         60.10011        61.08821        -1.90524
C         58.84842        60.34617        -2.12387
C         60.22398        62.54818        -2.08603
C         59.41569        63.32020        -2.93946
C         60.27959        65.42966        -2.14159
C         59.38840        64.72535        -2.93766
C         62.40126        35.73905         0.36610
C         62.38283        37.12256         0.66838
C         61.10817        37.77274         0.96453
C         62.32187        39.94088         1.04661
C         61.10491        39.17587         1.52658
C         62.27220        41.43370         1.06501
C         61.00529        42.09110         1.41483
C         62.20908        44.23725         1.52712
C         60.99540        43.50921         1.56135
C         62.17151        45.68369         1.57579
C         60.98262        46.36894         1.49398
C         62.07337        48.58447         1.88324
C         61.02207        47.81988         1.09529
C         62.08478        50.07073         1.69491
C         60.90579        50.71954         1.08392
C         62.22873        52.79420         0.83057
C         60.96829        52.05698         0.73703
C         62.27681        54.15978         0.49628
C         61.01111        54.89631         0.32440
C         62.39503        56.95853        -0.33660
C         61.07546        56.33747        -0.12422
C         62.40924        58.33662        -0.70849
C         61.20908        59.01031        -1.09004
C         62.38147        61.15612        -0.72841
C         61.20682        60.41792        -1.34341
C         62.47058        62.60959        -1.05587
C         61.30480        63.29237        -1.48685
C         62.44229        65.43369        -0.93118
C         61.30775        64.72358        -1.48840
C         62.39263        66.80151        -0.58091
C         64.76203        35.85548        -0.14520
C         63.58188        35.11238         0.00455
C         64.82487        37.24555         0.16842
C         63.61125        37.83781         0.63197
C         64.83200        40.04252         0.79456
C         63.64710        39.23158         1.22497
C         64.79113        41.55582         0.63072
C         63.50996        42.21834         1.07164
C         64.70807        44.40359         0.98148
C         63.46708        43.57774         1.27533
C         64.62858        45.80865         1.53131
C         63.42728        46.42646         1.68222
C         64.61140        48.63591         2.06615
C         63.34920        47.82137         2.26458
C         64.55021        50.06594         2.00074
C         63.38099        50.78114         1.72331
C         64.65938        52.83864         1.11811
C         63.42134        52.14832         1.26994
C         64.71411        54.10433         0.50301
C         63.51524        54.83073         0.30404
C         64.85791        56.87665        -0.23990
C         63.56559        56.22700        -0.09637
C         64.88799        58.30179        -0.48779
C         63.68501        59.02700        -0.68574
C         64.92662        61.15263        -0.79235
C         63.70405        60.43600        -0.82272
C         64.92321        62.58393        -0.89446
C         63.69333        63.29931        -0.93371
C         64.85645        65.47196        -0.54769
C         63.67987        64.74603        -0.83410
C         64.79886        66.83341        -0.20357
C         63.53506        67.46968        -0.16972
C         67.08951        34.94994        -4.00427
C         66.34595        34.67647        -2.84462
C         67.13812        36.74679        -1.77257
C         66.43582        35.55831        -1.74552
C         67.23848        37.65750        -0.63495
C         66.06144        38.02085         0.12427
C         67.29032        40.15689         0.67081
C         66.03796        39.39249         0.58347
C         67.27428        41.48779         0.95375
C         65.98368        42.17141         1.36184
C         67.15305        44.36628         1.60165
C         66.00484        43.68998         1.33771
C         67.20618        45.85298         1.73126
C         65.88885        46.57100         1.66625
C         67.10134        48.66686         2.28252
C         65.83536        47.98298         2.08203
C         67.07518        50.04788         2.33372
C         65.81709        50.79295         2.16934
C         67.20094        52.97208         1.55551
C         65.86587        52.25695         1.72717
C         67.26471        53.96260         0.39752
C         65.98463        54.63581        -0.12570
C         67.33190        56.81754        -0.38112
C         66.04012        56.15109        -0.14360
C         67.36919        58.28887        -0.38111
C         66.14115        58.99850        -0.49419
C         67.40779        61.08717        -0.56336
C         66.15519        60.41837        -0.62973
C         67.45044        62.56520        -0.70249
C         66.18823        63.33536        -0.95855
C         67.22813        65.36805         0.24238
C         66.21168        64.86430        -0.82621
C         67.26630        66.87667         0.20343
C         66.04816        67.56867         0.05917
C         67.24333        69.67343         0.32385
C         66.06254        68.97981         0.11637
C         68.56323        35.77731        -6.48993
C         68.83182        36.25840        -5.19082
C         67.90232        36.07330        -4.08938
C         69.33138        37.47995        -2.62464
C         67.90417        37.13660        -3.01462
C         69.58044        37.95948        -1.31078
C         68.46562        38.31840        -0.45277
C         69.83182        40.14270         0.84795
C         68.55631        39.31892         0.68357
C         69.78106        41.49280         1.26113
C         68.53140        42.25583         1.07647
C         69.62132        44.30633         2.18388
C         68.47978        43.70484         1.46258
C         69.48867        45.60477         2.77174
C         68.36121        46.50450         2.43177
C         69.47247        48.71892         3.02656
C         68.31858        47.89315         2.61089
C         69.55152        50.09070         2.68429
C         68.29077        50.89839         2.56525
C         69.68519        52.78646         1.62837
C         68.40311        51.98308         1.48250
C         69.73522        54.10492         1.13459
C         68.59786        54.64829         0.33337
C         69.84896        56.87676         0.16996
C         68.64856        56.07186        -0.14229
C         69.85191        58.25055        -0.14803
C         68.62042        58.96193        -0.38332
C         69.91758        61.13927        -0.67292
C         68.61269        60.39367        -0.47364
C         69.88436        62.60254        -0.27863
C         68.57929        63.22012         0.09388
C         69.76741        65.43641         0.13005
C         68.57188        64.71852         0.07947
C         69.75286        66.87235         0.32072
C         68.49335        67.57897         0.33596
C         69.72603        69.72929         0.62297
C         68.48128        69.00258         0.42804
C         69.73987        71.13373         0.79726
C         70.69960        36.61100        -7.26057
C         69.48535        35.96084        -7.51584
C         70.99650        37.06191        -5.97440
C         70.07756        36.89239        -4.92550
C         71.71562        37.45168        -3.10942
C         70.38581        37.28931        -3.54361
C         71.98704        37.74870        -1.77291
C         70.93296        38.01242        -0.89550
C         72.24490        40.18687         1.31747
C         71.09232        39.52079         0.88024
C         72.15206        41.49378         1.77975
C         70.91713        42.17262         1.76202
C         71.81223        43.98019         3.20381
C         70.78713        43.51628         2.35467
C         71.64797        45.16474         3.90357
C         70.50722        45.94606         3.69200
C         71.77008        48.92770         3.89674
C         70.56857        48.22537         3.76301
C         71.89530        50.18910         3.31783
C         70.76063        50.82045         2.76909
C         71.95895        53.00221         2.43539
C         70.79884        52.21158         2.28873
C         72.01069        54.30068         1.95972
C         70.90702        54.89524         1.29600
C         72.11505        57.07652         1.10390
C         70.95922        56.26277         0.82479
C         72.23126        58.34394         0.64378
C         71.18144        58.97849        -0.22083
C         72.34792        61.24396        -0.24931
C         71.07619        60.47981         0.09096
C         72.31402        62.57878        -0.41424
C         71.05462        63.31857        -0.23719
C         72.21769        65.48552         0.18640
C         71.03268        64.74491         0.03182
C         72.19108        66.85614         0.40013
C         70.96944        67.57791         0.46046
C         72.15548        69.74663         0.86778
C         70.95945        69.02157         0.65520
C         72.14247        71.12305         1.03881
C         70.92637        71.82180         1.00137
O         60.82400        55.98348         1.29790
O         66.77741        46.48024         0.46669
O         41.90069        52.81721        -0.95338
O         48.34355        55.71663        -1.97293
O         67.12841        62.96119        -2.05902
O         54.50275        51.86999        -2.49692
O         65.86581        35.11316        -0.52988
O         50.39858        47.42543        -1.69500
O         61.64070        49.40397         3.00253
O         71.25694        38.19301         0.46410
O         65.65602        51.90732         3.13152
O         68.71381        43.32160         0.05730
O         51.55400        50.39064        -2.68437
O         68.13654        56.22646        -1.49682
O         58.64534        62.70579        -3.93236
O         56.85510        45.57350        -0.93772
O         68.18151        53.66510        -0.69680
O         62.16963        40.59433        -0.22748
O         46.85935        47.90984        -1.31442
O         70.39165        47.06209         4.52610
O         39.61373        50.63495        -1.33072
H         40.09360        51.46533        -1.54207
O         67.27001        38.33683        -3.57468
H         67.78638        38.59789        -4.36644
O         58.82224        51.74497        -1.69452
H         59.62778        51.20222        -1.82475
O         68.38039        51.25250         0.24745
H         68.50937        51.90022        -0.48823
O         61.23980        39.04676         2.97668
H         60.43755        38.59348         3.31017
O         59.40027        46.03904        -0.79176
H         58.69304        45.96957        -1.47717
O         46.75778        48.49169         2.18495
H         47.53994        47.95043         2.43842
O         49.35628        52.06356         1.35762
H         48.55789        52.07706         1.93110
O         49.10437        48.47581         1.49919
H         49.08554        49.45411         1.37870
O         57.03842        52.84242         1.30669
H         56.25731        53.42886         1.40824
O         63.28583        47.59593         3.70614
H         62.83202        48.38405         4.08929
O         61.52001        47.84363        -0.28543
H         60.95181        47.20828        -0.79197
O         59.01713        46.06860         2.83100
H         59.53263        45.65909         3.55732
O         66.66299        64.95788         1.54291
H         67.03736        65.55126         2.22842
O         54.10170        54.60016         0.70704
H         53.25765        54.82089         1.16933
O         68.46743        38.54827         1.93488
H         69.21950        37.91704         1.93288
O         54.80551        54.35359        -2.87743
H         54.50331        53.51908        -3.31329
O         58.54733        42.07517         3.34066
H         57.62840        42.33621         3.60680
O         62.07165        61.14590         0.73161
H         62.00728        60.20480         1.00574
O         51.18127        54.66134         0.89464
H         50.85289        53.75306         1.10000
O         70.19966        61.10886        -2.09497
H         70.64544        60.24916        -2.29379
O         59.11693        50.20856         2.58280
H         59.85079        49.89848         3.16774
O         64.75958        44.55471        -0.46928
H         65.54475        45.11716        -0.66558
O         64.95164        41.78478        -0.78768
H         64.09789        41.56658        -1.22114
O         63.84154        39.06350         2.66506
H         64.74309        38.70711         2.81167
O         67.36679        53.82710         2.70898
H         67.28237        53.24564         3.50423
O         70.82021        60.57787         1.50668
H         70.47586        61.47814         1.69636
O         49.21434        49.70586        -2.47921
H         49.99399        49.87702        -3.08785
O         68.16237        51.55625         3.86245
H         67.86639        50.88845         4.51570
O         71.63990        58.87007        -1.61739
H         71.61895        57.92009        -1.86191
O         65.86127        54.25761        -1.53071
H         66.72885        54.47600        -1.94740
O         65.78155        41.81989         2.76689
H         66.55074        42.13882         3.28348
O         50.22898        54.16772        -2.62328
H         49.56756        54.80254        -2.98726
O         68.30932        62.79448         1.48774
H         67.57660        63.37843         1.81389
O         56.20927        59.70627        -4.10092
H         56.17496        60.51744        -4.65350
O         66.61502        65.42815        -2.08948
H         67.09211        64.71997        -2.58523
O         53.64173        46.11044        -1.53024
H         53.65967        45.16463        -1.78409
O         53.47470        47.80069         1.68796
H         53.53978        48.74525         1.94239
O         45.56309        54.27968         2.24049
H         45.64370        55.21806         2.51867
O         55.83514        42.24145         3.14474
H         55.52400        41.37650         3.48944
H         37.89333        48.92436         1.24450
H         36.15114        49.92374         2.69519
H         38.10218        53.76098         2.43617
H         36.24847        52.35490         3.27929
H         39.13610        48.15028        -0.22131
H         39.39690        54.90706         1.39415
H         41.21631        46.91225        -0.09481
H         41.47022        56.13776         1.13129
H         45.05662        44.73396         0.23709
H         42.91549        45.90008        -0.06088
H         45.36245        58.21497         0.60575
H         43.20036        57.11546         0.80721
H         46.52176        43.92201         1.69722
H         47.07252        59.11197         0.40764
H         48.58770        42.61667         1.68768
H         49.08380        60.23927        -0.37227
H         52.27413        40.31615         1.42854
H         50.17434        41.56025         1.41334
H         52.65040        62.19362        -2.05459
H         50.57258        61.10282        -1.37949
H         53.94924        39.40827         0.69189
H         54.21240        62.91788        -2.98853
H         56.06404        38.19639         0.74025
H         56.30808        63.76648        -4.05609
H         59.82774        36.10630         0.46366
H         57.73226        37.25305         0.83944
H         60.26686        66.52762        -2.13846
H         58.68151        65.24665        -3.59579
H         61.48220        35.14265         0.42958
H         61.43385        67.33805        -0.60224
H         63.60183        34.03618        -0.20994
H         63.45266        68.52121         0.13745
H         67.09035        34.21577        -4.82332
H         65.77877        33.74243        -2.74876
H         67.20179        70.76932         0.37363
H         65.13089        69.54748        -0.00948
H         67.60391        35.28257        -6.69788
H         68.80047        71.70194         0.77982
H         71.42375        36.76036        -8.07328
H         69.25813        35.60089        -8.52886
H         71.95746        37.56155        -5.78733
H         72.54863        37.28469        -3.80557
H         73.02123        37.78741        -1.40710
H         73.20857        39.66183         1.31019
H         73.06495        41.99396         2.12728
H         72.71303        43.38019         3.38061
H         72.39808        45.49913         4.63126
H         72.59960        48.48300         4.46129
H         72.85680        50.71415         3.38667
H         72.84493        52.59686         2.94200
H         72.94181        54.86275         2.10254
H         72.93013        56.66606         1.71395
H         73.13268        58.92834         0.87644
H         73.29979        60.69967        -0.33848
H         73.23728        63.13065        -0.64224
H         73.19081        64.97862         0.13752
H         73.14828        67.38260         0.50517
H         73.12042        69.22424         0.90561
H         73.08386        71.66494         1.20422
H         70.91331        72.91202         1.13722
