         276
 CSIRO Nanostructure Databank - Neutral Graphene Oxide Data Set
C        -11.18980         0.73080        -0.23068
C         -9.92113         1.51442        -0.54469
C         -8.75059         0.78294         0.12230
C         -7.44924         1.46963         0.18335
C         -6.22652         0.71085         0.45032
C         -5.01502         1.48647         0.72230
C         -3.80734         0.77031         1.24089
C         -2.50298         1.50910         1.05750
C         -1.20566         0.79035         1.06056
C         -0.03156         1.46204         0.98663
C          1.23591         0.72048         1.22890
C          2.49557         1.46325         1.50458
C          3.83015         0.76275         1.47137
C          4.98192         1.55339         0.92007
C          6.13216         0.78562         0.35325
C          7.45173         1.49792         0.22648
C          8.63571         0.78716        -0.46934
C          8.69478         1.26240        -1.94023
C          9.83989         0.55073        -2.64557
C         -9.88232         2.98300        -0.15999
C         -8.67646         3.60145        -0.06809
C         -7.43839         2.82081        -0.03319
C         -6.13561         3.49896        -0.15194
C         -4.99401         2.83838         0.50779
C         -3.79473         3.67568         0.90342
C         -2.54870         2.87195         0.36106
C         -1.23415         3.66626         0.44040
C          0.08503         2.86550         0.44095
C          1.30909         3.69215         0.94838
C          2.51312         2.96858         1.51581
C          3.81356         3.71920         1.64579
C          5.18241         3.00490         1.43417
C          6.12154         3.80275         0.39069
C          7.43486         2.99796         0.11123
C          8.46152         3.52926        -0.86800
C          8.95908         2.75479        -1.85512
C         -8.50240         5.09913         0.10971
C         -7.40479         5.64836        -0.84435
C         -6.07059         4.92579        -0.57444
C         -4.84439         5.70254        -0.22020
C         -3.79186         5.10941         0.39346
C         -2.57824         5.91166         0.86983
C         -1.27480         5.14094         0.68383
C         -0.07078         5.94219         1.21429
C          1.25703         5.17997         1.07076
C          2.46545         5.98379         1.49235
C          3.77842         5.24973         1.64857
C          5.06354         5.95584         1.32407
C          6.33718         5.18452         1.02333
C          7.78711         5.83239        -1.14274
C          8.95177         4.96553        -0.78149
C         -7.28745         7.15082        -0.75284
C         -6.11424         7.82823        -0.76245
C         -4.77154         7.11787        -0.76284
C         -3.75338         7.98033         0.00049
C         -2.44994         7.25770         0.18519
C         -1.24152         7.84834        -0.05773
C          0.00496         7.23554         0.40067
C          1.20128         7.85870         0.21415
C          2.41967         7.39519         0.93385
C          3.70872         8.07640         0.58568
C          4.98088         7.31687         0.72647
C          5.96127         7.49604        -0.41905
C          7.11673         6.55535        -0.11176
C         -6.07061         9.27884        -0.89403
C         -4.90262         9.98113        -0.91664
C         -3.63280         9.33651        -0.64294
C         -2.41581         9.91067        -0.87455
C         -1.16827         9.20321        -0.63033
C          0.04622         9.75863        -0.92317
C          1.30608         8.93624        -0.84993
C          2.59907         9.72338        -0.87822
C          3.75167         9.22293        -0.37218
C          5.09032         9.76858        -0.65417
C          6.18645         8.97542        -0.64367
C        -11.19763        -0.61531        -0.25732
C         -9.92994        -1.35135        -0.64613
C         -8.77687        -0.69844         0.13252
C         -7.49964        -1.49096         0.38636
C         -6.26306        -0.65548         0.55040
C         -5.10897        -1.55860         0.97307
C         -3.88855        -0.73702         1.59649
C         -2.50275        -1.44235         1.39996
C         -1.20812        -0.68661         1.25986
C          0.01069        -1.41693         0.73897
C          1.37036        -0.69761         0.69271
C          2.50045        -1.44074         1.43808
C          3.84800        -0.73734         1.45176
C          4.98047        -1.46131         0.85488
C          6.07204        -0.74165         0.10904
C          7.42775        -1.46730         0.18229
C          8.63273        -0.74584        -0.35209
C          9.58125        -1.49937        -1.27006
C         10.27866        -0.66693        -2.28844
C         -9.82434        -2.85483        -0.53295
C         -8.60224        -3.43684        -0.70145
C         -7.36067        -2.52400        -0.78458
C         -6.00266        -3.29404        -0.73499
C         -4.74914        -2.56653        -0.18831
C         -3.73479        -3.54824         0.44352
C         -2.53709        -2.93222         1.11279
C         -1.22021        -3.69311         1.11684
C          0.01078        -2.90439         0.75346
C          1.33904        -3.61774         0.76159
C          2.48781        -2.93468         1.45149
C          3.84552        -3.65461         1.59462
C          4.87224        -2.91831         0.70883
C          6.05854        -3.67314         0.19236
C          7.34701        -2.94194        -0.04390
C          8.22259        -3.68139        -1.06199
C          9.41661        -2.91507        -1.55238
C         -8.48950        -4.87860        -0.89072
C         -7.31152        -5.53222        -1.06178
C         -6.03034        -4.77793        -0.96014
C         -4.78674        -5.60286        -0.78487
C         -3.67170        -5.00395         0.02952
C         -2.43186        -5.81829         0.26272
C         -1.17421        -5.14867         0.71999
C          0.10256        -5.84077         0.38249
C          1.36782        -5.09045         0.56951
C          2.53733        -5.86155         1.08372
C          3.79174        -5.13788         1.25952
C          5.03504        -5.87005         1.03179
C          6.25885        -5.11935         0.54374
C          7.42653        -5.85012        -0.05466
C          8.46999        -5.09405        -0.59972
C         -7.26130        -6.97442        -1.56145
C         -6.13164        -7.83794        -0.94579
C         -4.80860        -7.09178        -0.92848
C         -3.58372        -7.91082        -0.49513
C         -2.30202        -7.03111        -0.65989
C         -1.02931        -7.85007        -0.48983
C          0.14789        -7.16822         0.08808
C          1.46461        -7.91395        -0.03168
C          2.49395        -7.35298         0.95052
C          3.79357        -8.13575         1.16926
C          4.96147        -7.31505         0.62399
C          6.22108        -8.02085         0.21148
C          7.46361        -7.25287         0.04606
C         -5.92319        -9.15550        -1.67474
C         -4.72726        -9.78428        -1.75427
C         -3.48180        -9.24480        -1.21395
C         -2.32210        -9.95586        -1.13347
C         -1.03206        -9.32813        -0.71432
C          0.14950       -10.07319        -0.20613
C          1.32035        -9.43024         0.08795
C          2.57728       -10.14690         0.26074
C          3.75749        -9.52605         0.56667
C          5.04984       -10.19003         0.45572
C          6.20842        -9.49648         0.32215
O          2.01206        -6.78302         2.19352
O          7.81015        -2.40456         1.22735
O         -0.60139        -8.39774        -1.81571
O          1.68121         0.91735         2.59852
O         -1.16138         4.64642        -0.67579
O          1.69787        -4.18098        -0.53722
O          3.06287         5.80707         2.78647
O          5.18057        -7.51820        -0.78874
O         -3.14359         1.45569         2.35765
O         -1.11031        -4.70961         2.13052
O          4.94184        -3.42509        -0.70228
O          1.64277         4.57785        -0.20426
O         -0.25458         6.18354         2.57034
O         -5.80831         3.88871        -1.58075
O         -5.75932        -3.82860        -2.06490
O         -9.14972         0.03628         1.33437
O          5.10761         1.43623        -0.52638
O          9.89608        -1.20735         0.19050
O          3.01457         8.39289         1.82425
O          4.14327         0.04329         2.69656
O          7.91885         2.34209         1.31424
O          3.06719         3.32212         2.82938
O         -5.60988        -2.39448         1.97774
O          2.09555        -2.16951         2.62963
O          5.47577         7.14368         2.08180
O         -0.23765        -2.15701        -0.49497
O         -7.30720        -1.78736        -1.96124
O         -3.63211        -3.49990         1.88800
O          6.12740        -5.47421         1.94474
O         -4.52874        -6.25672        -2.08042
O         -1.63973        -1.17537         2.56063
O         -3.48594        -5.84155         1.24553
O          7.35405         5.72913        -2.36158
H          6.47973         6.20802        -2.46020
O          5.82873        -0.85221        -1.34547
H          4.88283        -0.64894        -1.51643
O         -2.75999         6.17525         2.27959
H         -3.44300         6.88768         2.35018
O          5.26133         6.98285        -1.59948
H          4.54916         7.61490        -1.84623
O         -7.67316        -2.22493         1.60787
H         -7.66043        -1.58952         2.35767
O          5.82899         2.97406         2.69759
H          5.16480         2.71469         3.37474
O         -7.08205        -6.93291        -2.98141
H         -6.24992        -6.43453        -3.15689
O         -2.17751        -6.44409        -1.96458
H         -1.79963        -7.12784        -2.56455
O         -3.79376         3.75307         2.33624
H         -3.33605         4.58122         2.62958
O         -9.72399         1.54525        -1.97674
H         -9.80138         0.60674        -2.30409
O         -2.77768         2.57758        -1.02646
H         -2.55276         3.38309        -1.54332
O          1.79893        -0.59118        -0.67570
H          1.27023        -1.24082        -1.20157
O          5.40964         4.02799        -0.82157
H          5.18909         3.14322        -1.21077
O          7.44760         1.05258        -2.62305
H          6.99915         0.22909        -2.29609
O         -3.73229        -8.33700         0.88137
H         -3.80397        -7.53242         1.45476
O         -6.50047        -8.12689         0.42058
H         -5.72624        -8.56701         0.84601
O         -4.10380        -1.88195        -1.26123
H         -4.61239        -2.06002        -2.08566
O          0.37725         2.57616        -0.94846
H          0.33790         3.43892        -1.42351
O          7.16729         5.12854         2.08313
H          6.98749         5.89056         2.68028
O         -9.77531        -1.08818        -2.07480
H         -8.85461        -1.41044        -2.33545
O         -4.31678         8.18644         1.33899
H         -3.90147         8.98917         1.71975
O         -8.06772         5.37951         1.44580
H         -8.68521         4.95147         2.07327
O         -4.30381         7.02385        -2.12880
H         -4.92605         6.44732        -2.62129
O          4.00598        -8.31541         2.58163
H          3.36251        -7.72926         3.04996
O          9.84234         1.27817         0.13104
H         10.31234         0.48983         0.50464
O          9.40406         5.28297         0.52427
H          9.74901         4.47033         0.95083
O          4.28643        -3.51473         2.95575
H          3.66586        -2.89922         3.41443
O          1.38935         8.19387        -2.13536
H          0.51531         7.76982        -2.28212
O          2.01109        -7.64924        -1.34355
H          1.31876        -7.91402        -1.99452
O          7.33297        -3.78537        -2.23348
H          7.59568        -4.56938        -2.75984
O         -7.81605         5.36499        -2.19606
H         -7.39026         4.50967        -2.44857
O         -4.16606        -0.77383         2.99412
H         -3.46826        -0.24810         3.44549
H         11.11093        -1.13109        -2.84091
H         10.33674         1.08581        -3.47070
H          9.68198         3.19514        -2.56312
H          9.77363         5.11460        -1.54044
H          7.82868         6.96459         0.62894
H          7.18794         9.37226        -0.86146
H          5.17933        10.83576        -0.90731
H          2.63430        10.59539        -1.55099
H          0.09897        10.76758        -1.36018
H         -2.35948        10.91699        -1.31812
H         -4.91002        11.05922        -1.13759
H         -7.02443         9.80268        -1.06070
H         -8.23277         7.71659        -0.79513
H         -9.47678         5.62465        -0.09686
H        -10.81332         3.57195        -0.16658
H        -12.11266         1.28560         0.00203
H        -12.12014        -1.18030        -0.05263
H        -10.73669        -3.47269        -0.51064
H         -9.43292        -5.44385        -0.96954
H         -8.24308        -7.47043        -1.35985
H         -6.81128        -9.64070        -2.10786
H         -4.66707       -10.76179        -2.25928
H         -2.27539       -10.97779        -1.54254
H          0.10279       -11.17260        -0.16898
H          2.59394       -11.20973        -0.03172
H          5.06816       -11.29079         0.43287
H          7.16657       -10.02997         0.23454
H          8.36246        -7.78896        -0.29632
H          9.45170        -5.56111        -0.77203
H          9.77445        -3.23329        -2.54694
