         344
 CSIRO Nanostructure Databank - Neutral Graphene Oxide Data Set
C          1.25931         3.36264        -0.42941
C          0.10848         4.05503        -0.66776
C          1.20615         6.22446        -0.27118
C          0.04439         5.46750        -0.50024
C          1.18763         7.67312        -0.22136
C         -0.02638         8.40023        -0.21168
C          1.16436        10.53254        -0.12466
C         -0.03973         9.78056        -0.15689
C          1.16732        11.96640        -0.04252
C         -0.05470        12.72366        -0.06908
C          1.13243        14.87104        -0.00805
C         -0.06929        14.09551        -0.10998
C          1.14282        16.25272        -0.14124
C         -0.03006        17.03593        -0.42275
C          1.21119        19.14512        -0.08935
C          0.02129        18.40079        -0.46499
C          1.18339        20.60999        -0.01918
C          0.11668        21.32934        -0.51764
C          1.23262        23.48756        -0.25340
C          0.19291        22.74589        -0.72297
C          1.26750        24.96325        -0.58502
C         -0.01439        25.69236        -0.20605
C          1.24575        27.77430         0.14013
C          0.02514        27.01280         0.10318
C          1.24792        29.11335         0.56390
C          3.74198         3.40357        -0.25622
C          2.46016         4.06344         0.13735
C          3.67510         6.24956        -0.17041
C          2.46259         5.54659        -0.14514
C          3.66280         7.69852        -0.21715
C          2.41700         8.39724        -0.18031
C          3.63568        10.55884        -0.18997
C          2.40769         9.82875        -0.15100
C          3.62384        11.98905        -0.08181
C          2.39988        12.66610         0.03261
C          3.65749        14.85777         0.26947
C          2.36102        14.11561         0.46367
C          3.62923        16.24229         0.30979
C          2.44780        17.00621        -0.21376
C          3.53028        19.16862         0.87373
C          2.37016        18.46054         0.19159
C          3.57948        20.65988         0.58191
C          2.39240        21.32388         0.35708
C          3.56855        23.54765         0.80808
C          2.23425        22.80249         0.65996
C          3.61184        25.04608         0.50893
C          2.47029        25.70908        -0.08981
C          3.74507        27.85757         0.16728
C          2.52360        27.17238        -0.39294
C          3.68630        29.29823         0.39602
C          2.40110        29.89571         0.56519
C          6.15054         3.32847        -0.60901
C          4.94814         4.07325        -0.24636
C          6.12202         6.30258        -0.11134
C          4.93619         5.53583        -0.09870
C          6.13173         7.71089        -0.66051
C          4.86379         8.45092        -0.33094
C          6.12012        10.60823        -0.71294
C          4.86268         9.84715        -0.33405
C          6.08905        12.03863        -0.22341
C          4.89559        12.71353        -0.01854
C          6.12044        14.89563         0.00167
C          4.89173        14.14664         0.19181
C          6.11090        16.30064         0.02049
C          4.88728        16.98118         0.42233
C          6.10536        19.23348         0.36458
C          4.87923        18.45129         0.69670
C          6.05264        20.66221         0.49021
C          4.84910        21.36427         0.64737
C          6.05146        23.54795         0.78854
C          4.85790        22.82329         0.72159
C          6.07547        24.98701         0.74845
C          4.92379        25.72025         0.46287
C          6.13045        27.92341         0.87296
C          4.90937        27.16310         0.39494
C          6.13852        29.36390         0.42046
C          4.86669        30.03319         0.47845
C          8.71951         3.31585        -0.47673
C          7.40327         3.65482        -0.10054
C          8.61761         6.33971        -0.01517
C          7.35151         5.75100         0.26388
C          8.61127         7.74566        -0.23548
C          7.40313         8.45931        -0.33798
C          8.64246        10.56847        -0.32441
C          7.40782         9.86823        -0.38461
C          8.59071        12.03890        -0.48639
C          7.38565        12.73081         0.10525
C          8.58666        14.94082        -0.22361
C          7.35867        14.20900        -0.16191
C          8.59069        16.38036        -0.18131
C          7.29691        17.11755        -0.39840
C          8.55692        19.26829         0.08361
C          7.29068        18.56014         0.07685
C          8.58242        20.66683         0.24657
C          7.29662        21.46305         0.17039
C          8.62372        23.50311         0.69486
C          7.34043        22.75513         0.99013
C          8.65714        24.97181         0.86867
C          7.36142        25.72427         0.91604
C          8.56221        27.81955         0.25388
C          7.40181        27.17293         0.58512
C          8.54316        29.23806        -0.27761
C          7.29052        29.99613         0.05944
C         11.12379         3.49538        -0.16657
C          9.86390         4.12990        -0.15491
C         11.05667         6.31393         0.15469
C          9.81876         5.57138         0.02223
C         11.06735         7.71762         0.13211
C          9.91772         8.43321        -0.50040
C         11.13136        10.61702        -0.20663
C          9.88397         9.91626        -0.26421
C         11.16108        12.06958        -0.37116
C          9.88011        12.80118        -0.57386
C         11.05632        15.00351        -0.38785
C          9.81931        14.25589        -0.35772
C         11.04512        16.43384        -0.08282
C          9.80132        17.10989        -0.08334
C         11.03153        19.25349         0.05203
C          9.78865        18.55065         0.01332
C         11.03993        20.66598         0.24801
C          9.81831        21.35829         0.34672
C         11.06335        23.56012         0.50830
C          9.78498        22.81203         0.51388
C         11.01275        24.98815         0.14784
C          9.86517        25.70441         0.41807
C         11.03246        27.82582        -0.04254
C          9.82780        27.11907         0.18426
C         11.03777        29.28597        -0.07045
C          9.82894        29.97443        -0.02343
C         13.55041         3.47354         0.28474
C         12.34617         4.17370         0.12225
C         13.51390         6.36274         0.30216
C         12.29685         5.60953         0.26451
C         13.54313         7.73398         0.38545
C         12.26152         8.49768         0.59834
C         13.58619        10.59656         0.14180
C         12.32551         9.92833         0.09888
C         13.67518        12.07107        -0.20071
C         12.33100        12.76115        -0.20454
C         13.47242        14.98120         0.41184
C         12.36873        14.23396        -0.32264
C         13.53032        16.42507         0.00391
C         12.28724        17.13792        -0.05161
C         13.53043        19.27896        -0.42473
C         12.26813        18.54817        -0.05740
C         13.59845        20.68409         0.08986
C         12.35375        21.30209         0.67485
C         13.59448        23.49430         0.09606
C         12.35825        22.82316         0.53659
C         13.56444        24.89066        -0.32982
C         12.21386        25.66926        -0.32271
C         13.49838        27.80312        -0.30484
C         12.26245        27.12858        -0.21053
C         13.50899        29.25118        -0.30392
C         12.29184        29.95374        -0.17457
C         16.06583         3.47933         0.38911
C         14.79065         4.19422         0.73481
C         16.04848         6.32683        -0.07526
C         14.77325         5.59137         0.15249
C         16.02199         7.84717        -0.17986
C         14.84856         8.44797         0.63858
C         16.05101        10.64416         0.40492
C         14.78827         9.93552         0.38135
C         16.06352        12.07257         0.48876
C         14.73298        12.77107         0.68022
C         15.97364        14.94807         0.32265
C         14.79286        14.25934         0.39251
C         16.00478        16.37926         0.09294
C         14.77296        17.10648        -0.03945
C         16.03537        19.21298        -0.19660
C         14.80540        18.51825        -0.18280
C         16.05780        20.65821        -0.12815
C         14.79372        21.35541         0.09864
C         16.03088        23.54553         0.01156
C         14.80758        22.81849         0.14161
C         16.01494        24.93914        -0.09040
C         14.80182        25.65946        -0.25628
C         15.95567        27.82038        -0.46665
C         14.74706        27.08969        -0.34110
C         15.96022        29.23682        -0.58036
C         14.73995        29.93381        -0.46103
C         18.53952         3.49422         0.21764
C         17.27396         4.17303         0.24361
C         18.49858         6.32888         0.32714
C         17.30188         5.61246         0.20208
C         18.47422         7.78368         0.44196
C         17.31206         8.49815         0.27819
C         18.51709        10.65488         0.52231
C         17.27998         9.93796         0.42507
C         18.50723        12.08190         0.48687
C         17.25945        12.77591         0.50861
C         18.50566        14.95184         0.21502
C         17.26218        14.26923         0.73954
C         18.47117        16.31500        -0.10810
C         17.24023        17.05643        -0.07289
C         18.49858        19.20000        -0.33877
C         17.25865        18.48500        -0.21246
C         18.50076        20.63122        -0.30658
C         17.26767        21.34535        -0.12048
C         18.54135        23.53799        -0.30303
C         17.32968        22.81545         0.25081
C         18.54232        24.94242        -0.35521
C         17.30577        25.70866         0.06469
C         18.48973        27.82225        -0.84022
C         17.20845        27.06087        -0.61341
C         18.43097        29.29612        -0.75860
C         17.21357        29.94382        -0.69612
C         19.72273         4.20494         0.24212
C         20.96460         6.38048         0.31223
C         19.73418         5.62159         0.33011
C         20.97583         7.72087         0.50718
C         19.73244         8.46265         0.94524
C         20.93542        10.68630         0.73395
C         19.74907         9.95366         0.67070
C         20.94217        12.07816         0.59953
C         19.74563        12.80851         0.47516
C         20.95790        14.98537         0.10920
C         19.73364        14.23724         0.26233
C         20.96094        16.29069        -0.25595
C         19.69806        16.98269        -0.69256
C         20.90146        19.20904        -0.65979
C         19.71810        18.48936        -0.51256
C         20.90851        20.60977        -0.64130
C         19.72727        21.34332        -0.48534
C         20.89396        23.52921        -0.89822
C         19.72700        22.81000        -0.56246
C         20.90580        24.91722        -0.91041
C         19.74020        25.65468        -0.62294
C         20.90369        27.86974        -0.42559
C         19.76575        27.12068        -0.59573
C         20.85902        29.30288        -0.47534
C         19.68615        29.99078        -0.64138
O         11.94857        14.72657        -1.59769
O          8.08411        25.39245         2.16952
O         12.76957        25.11334        -1.55887
O          9.07483        12.44917        -1.78863
O         11.83411        23.42804         1.79345
O          7.34951         4.57947         0.99260
O          5.12951        17.57230         1.85249
O          3.46453        24.48523         1.92414
O         17.75771        27.17827        -1.95684
O         15.31707         5.67947        -1.20150
O          2.35594         3.94079         1.61892
H          1.50064         4.34839         1.87418
O         15.16469         8.25272         2.04460
H         14.39727         8.59232         2.55777
O         10.12758         8.29890        -1.97459
H          9.33878         8.68593        -2.41334
O         19.60954        16.78138        -2.15453
H         19.56480        15.81398        -2.31074
O         19.70442         8.35028         2.41412
H         19.59147         7.39995         2.62922
O          8.48689        29.08970        -1.75457
H          9.32942        28.67176        -2.03596
O          7.17200        21.88634        -1.22519
H          7.16308        21.08013        -1.78377
O         13.00214        14.96382         1.81011
H         13.70922        15.34877         2.36952
O         13.42359        19.42084        -1.90418
H         13.47244        18.51783        -2.28640
O          2.57389        27.38503        -1.87429
H          2.44501        28.34525        -2.02992
O         14.17704        12.19498        -1.56046
H         13.53566        11.77013        -2.16787
O          2.74332        17.08364        -1.67793
H          1.96418        17.50516        -2.10226
O          2.21294        14.04670         1.93159
H          1.36718        13.58438         2.11528
O         12.16111         8.62661         2.08169
H         11.97229         7.72945         2.43360
O         17.44916        25.97492         1.49411
H         17.45257        25.09877         1.94476
O          1.59653        22.79263         1.97592
H          1.98923        23.54308         2.48319
O          6.14480         7.60692        -2.13856
H          5.34751         7.09771        -2.40114
O          7.16336        17.24978        -1.88415
H          7.21480        16.34398        -2.26063
O         12.44826        20.98408         2.09814
H         12.06859        21.76034         2.57856
O          6.03303        27.98152         2.33298
H          6.18327        27.07613         2.68090
O          1.26662        25.03124        -2.05491
H          1.62147        25.92355        -2.30387
O         17.51689        22.86014         1.71966
H         18.29314        22.29780         1.93049
O         14.74118         4.36184         2.20214
H         14.66622         3.46935         2.60021
O          6.08908        10.65444        -2.18527
H          6.12134         9.71767        -2.49345
O         14.34353        12.57741         2.06047
H         15.05988        12.93930         2.62421
O         17.29866        14.42902         2.20802
H         17.52170        15.36608         2.39368
O          7.58269        12.56263         1.56503
H          6.84939        13.03393         2.01626
O         15.82576         8.20682        -1.56131
H         15.44546         7.41391        -2.00895
O          7.39916        22.40670         2.39373
H          7.52291        23.24264         2.89564
O          3.19357        19.11314         2.29184
H          3.73267        18.38095         2.68104
H          1.29333         2.26977        -0.54570
H         -0.79613         3.52513        -1.00067
H         -0.92242         5.96487        -0.65013
H         -0.98555         7.86582        -0.23105
H         -1.01059        10.29269        -0.13543
H         -1.01339        12.19375        -0.14487
H         -1.03347        14.60460        -0.24770
H         -0.99601        16.53686        -0.58306
H         -0.90606        18.94792        -0.68009
H         -0.78595        20.81891        -0.87867
H         -0.59770        23.22296        -1.32017
H         -0.97395        25.18334        -0.37497
H         -0.90912        27.54865         0.33502
H          0.28957        29.57302         0.84988
H          3.73012         2.31991        -0.44819
H          2.33925        30.96408         0.81516
H          6.03660         2.47291        -1.29032
H          4.82747        31.13289         0.51155
H          8.89961         2.37486        -1.01813
H          7.26038        31.06319        -0.21425
H         11.16134         2.40828        -0.33621
H          9.82710        31.07430        -0.06185
H         13.57565         2.38569         0.11903
H         12.30487        31.05371        -0.19654
H         16.08869         2.38011         0.46030
H         14.74096        31.03356        -0.49427
H         18.55410         2.39508         0.19786
H         17.19286        31.04306        -0.64333
H         20.68297         3.66903         0.21589
H         21.90299         5.84291         0.10616
H         21.93641         8.25520         0.48725
H         21.89533        10.17526         0.88913
H         21.90974        12.59687         0.62271
H         21.91659        14.49250         0.32342
H         21.92311        16.81116        -0.35986
H         21.85427        18.68972        -0.82757
H         21.86921        21.12320        -0.77774
H         21.82325        22.99658        -1.13917
H         21.83750        25.44473        -1.15792
H         21.87363        27.38246        -0.25161
H         21.80178        29.85589        -0.35873
H         19.68388        31.09054        -0.64810
