         480
 CSIRO Nanostructure Databank - Neutral Graphene Oxide Data Set
C         37.42860        50.49193         0.91053
C         36.31501        51.32273         1.01877
C         37.63153        53.19806         0.24112
C         36.41719        52.67855         0.69711
C         39.87588        48.79836         0.49025
C         39.87353        50.17197         0.46946
C         38.66411        51.00360         0.46974
C         40.05623        52.85772        -0.48914
C         38.75564        52.37453         0.12135
C         40.17815        54.33814        -0.72842
C         42.33627        48.62206         0.42567
C         41.09250        48.04153         0.43081
C         42.46591        50.07231         0.65257
C         41.15858        50.87959         0.61323
C         42.45867        52.95808         0.32774
C         41.25852        52.29049         0.23698
C         42.42252        54.46955         0.39633
C         41.27835        55.03642        -0.42271
C         44.83643        45.72246         0.25732
C         43.66776        46.40899         0.38093
C         44.86657        48.62057         0.00239
C         43.57113        47.85782         0.10606
C         44.91538        50.09497         0.19809
C         43.72112        50.80954         0.38408
C         44.94355        52.94890         0.23896
C         43.71572        52.23850         0.40138
C         44.95763        54.39914         0.11806
C         43.75305        55.13526         0.12626
C         45.00408        57.21089        -0.12473
C         43.80025        56.53197         0.00766
C         47.42013        44.24899        -0.03401
C         47.30073        45.66591        -0.19385
C         46.10239        46.36172        -0.01866
C         47.40612        48.60602         0.07825
C         46.12975        47.83937         0.16966
C         47.38734        50.08174        -0.01984
C         46.15597        50.78989         0.11815
C         47.41334        52.91922         0.05790
C         46.16185        52.22387         0.14938
C         47.42482        54.34502        -0.01410
C         46.20164        55.09373        -0.02266
C         47.50313        57.23686        -0.25695
C         46.23794        56.52418        -0.12629
C         47.51991        58.67786        -0.04757
C         49.87227        44.21414        -0.36808
C         48.62580        43.58124        -0.08071
C         49.83260        45.64495        -0.72995
C         48.53175        46.39863        -0.61094
C         49.90098        48.60353        -0.33213
C         48.60266        47.89515        -0.46836
C         49.85209        49.99887        -0.10034
C         48.62825        50.74546        -0.05635
C         49.86413        52.90831        -0.00474
C         48.64205        52.19753         0.00103
C         49.88629        54.31099        -0.06706
C         48.65963        55.03436        -0.14106
C         49.95680        57.02866        -0.66470
C         48.67470        56.45302        -0.37448
C         49.93302        59.20540        -0.21568
C         48.56690        59.56069         0.09040
C         52.38051        41.41448        -0.09129
C         51.18986        42.11458        -0.16574
C         52.36215        44.27851        -0.41317
C         51.11451        43.53343        -0.33749
C         52.37807        45.65443        -0.43305
C         51.14048        46.43211        -0.66514
C         52.37544        48.60297        -0.28035
C         51.12013        47.89072        -0.39706
C         52.36556        49.98640        -0.08588
C         51.10989        50.70870         0.32001
C         52.36404        52.92920         0.45500
C         51.17284        52.16343        -0.16508
C         52.36770        54.35825        -0.02770
C         51.16975        55.01390        -0.12548
C         52.39490        57.22329        -0.17163
C         51.16839        56.44067        -0.37751
C         52.35539        58.61836         0.48000
C         51.12027        59.53156         0.40330
C         52.42630        61.37519         1.32649
C         51.23592        60.73830         1.20699
C         54.94397        39.92207        -0.22785
C         54.87880        41.36499        -0.09322
C         53.64377        42.04777        -0.17845
C         54.83869        44.21508         0.11352
C         53.67414        43.51468        -0.56125
C         54.82115        45.70086         0.13154
C         53.68422        46.39559        -0.59560
C         54.83471        48.52597        -0.07594
C         53.63239        47.87855        -0.29128
C         54.90241        49.99565        -0.16190
C         53.59363        50.77082        -0.18989
C         54.85317        52.90621         0.10743
C         53.64854        52.20901         0.13868
C         54.88985        54.35091         0.02666
C         53.63745        55.06831        -0.43668
C         54.84663        57.19161         0.43461
C         53.58522        56.55024        -0.10854
C         54.92203        58.69107         0.25748
C         53.63817        59.40677         0.22061
C         54.95467        61.51570         0.86822
C         53.64241        60.86854         0.65162
C         55.00977        62.88003         1.22488
C         57.41266        39.88241        -0.04949
C         56.10964        39.23166        -0.29877
C         57.40671        41.37801         0.10336
C         56.11736        42.10022         0.01118
C         57.36396        44.21590         0.28531
C         56.13586        43.48889         0.13823
C         57.30837        45.66051         0.73536
C         56.09637        46.43128         0.25299
C         57.34783        48.55083         0.15780
C         56.07274        47.79278         0.16479
C         57.35777        50.03537         0.20555
C         56.05594        50.73242         0.48363
C         57.32853        52.86275         0.12046
C         56.11040        52.20065         0.15370
C         57.35886        54.30612         0.11871
C         56.09598        55.01142         0.08307
C         57.39104        57.21759         0.07637
C         56.10162        56.48962        -0.03661
C         57.40036        58.66570         0.39125
C         56.13084        59.37069         0.39898
C         57.41183        61.47619         0.76572
C         56.15560        60.80488         0.64310
C         57.43563        62.87610         1.01721
C         56.21591        63.55076         1.27160
C         60.05191        37.22135        -0.75239
C         58.84387        37.79432        -0.54493
C         59.90028        40.10363        -0.76901
C         58.66525        39.25769        -0.61115
C         59.86677        41.51365        -0.30876
C         58.66850        42.14892        -0.07846
C         59.84963        44.29970         0.33903
C         58.60002        43.58154         0.14342
C         59.80781        45.74552         0.55497
C         58.60547        46.39530         0.51986
C         59.85785        48.60578         0.25969
C         58.57929        47.87887         0.73481
C         59.89060        50.05654         0.78678
C         58.61349        50.78598         0.44091
C         59.85049        52.85935         0.03987
C         58.59919        52.14571         0.24092
C         59.82737        54.28873        -0.04637
C         58.57995        54.98415         0.13489
C         59.88726        57.16861         0.20487
C         58.60946        56.43923         0.51457
C         59.88895        58.57695         0.37321
C         58.62246        59.31053         0.52324
C         59.87724        61.44122         0.70533
C         58.65659        60.75449         0.67081
C         59.90470        62.86703         0.78029
C         58.69180        63.58471         0.97934
C         59.93261        65.67836         0.98987
C         58.74240        64.99459         1.11486
C         62.54573        35.84376        -1.22040
C         62.48405        37.29046        -1.12054
C         61.28046        37.95313        -1.00130
C         62.46488        40.08956        -0.41650
C         61.26032        39.47411        -1.11627
C         62.40826        41.49927        -0.02421
C         61.16352        42.29377        -0.38460
C         62.23791        44.26137         0.92651
C         61.05114        43.63042         0.30810
C         62.25610        45.74858         1.08229
C         61.05400        46.49537         0.71625
C         62.35326        48.60718         0.55222
C         61.11490        47.87458         0.64677
C         62.32596        50.03049         0.22748
C         61.12395        50.75017         0.26992
C         62.26390        52.77079        -0.59290
C         61.05849        52.12708        -0.05437
C         62.21264        54.31442        -0.72956
C         61.02644        55.01980        -0.23366
C         62.31684        57.16515        -0.14247
C         61.07206        56.45004        -0.05052
C         62.33114        58.57818         0.08864
C         61.12233        59.26353         0.36597
C         62.38473        61.44748         0.33002
C         61.18101        60.68974         0.84955
C         62.36293        62.86943         0.35504
C         61.14618        63.58306         0.63958
C         62.37242        65.75041         0.50035
C         61.14642        65.00088         0.71850
C         62.40522        67.15341         0.51081
C         65.00309        35.76854        -0.90327
C         63.69146        35.13171        -1.15509
C         65.03678        37.26467        -0.79698
C         63.77633        38.09067        -1.19437
C         64.96797        40.09670        -0.19982
C         63.64077        39.39029        -0.41866
C         64.78389        41.36360         0.63119
C         63.53994        42.13309         0.41596
C         64.80934        44.29268         0.97976
C         63.53378        43.51898         0.96130
C         64.83318        45.70687         0.88421
C         63.59132        46.49423         1.03312
C         64.81242        48.52923         0.29064
C         63.57599        47.91022         0.63016
C         64.78304        49.89809        -0.26071
C         63.54589        50.71588        -0.15507
C         64.81662        52.73052        -1.07912
C         63.55138        52.05392        -0.51428
C         64.80325        54.27786        -0.95533
C         63.50444        55.06481        -0.83575
C         64.76697        57.17056        -0.45019
C         63.53137        56.48020        -0.41022
C         64.78733        58.60574        -0.31390
C         63.57260        59.30680        -0.04728
C         64.76472        61.48460        -0.48331
C         63.55396        60.73554         0.01746
C         64.79786        62.93585        -0.08386
C         63.58434        63.61400         0.14935
C         64.79086        65.76658         0.02012
C         63.58009        65.04235         0.23569
C         64.76983        67.19170        -0.06299
C         63.57392        67.85634         0.19089
C         67.49112        33.01948        -1.05814
C         66.29984        33.61642        -0.92058
C         67.33401        35.71820         0.01832
C         66.06540        34.92865        -0.19696
C         67.32222        37.06726         0.28751
C         66.12683        37.88402         0.02277
C         67.25148        39.90730         0.92194
C         66.07842        39.21362         0.33258
C         67.32039        41.38723         0.89452
C         66.03452        42.10297         1.02682
C         67.25252        44.27689         1.01105
C         66.02638        43.58251         1.01064
C         67.28169        45.68375         0.82586
C         66.05242        46.40507         0.70214
C         67.27420        48.53603         0.21083
C         66.03316        47.82969         0.39102
C         67.32657        49.92371         0.01318
C         66.11621        50.64120        -0.41741
C         67.19949        52.85381        -0.17186
C         66.08048        52.11725        -0.49025
C         67.24684        54.30025        -0.33548
C         66.04107        55.01581        -0.61152
C         67.24049        57.17673        -0.74509
C         65.98810        56.42740        -0.58669
C         67.26837        58.63033        -0.51631
C         66.03875        59.32366        -0.38016
C         67.27425        61.43265        -0.21311
C         66.06489        60.74742        -0.27763
C         67.31445        62.89417         0.16484
C         66.02286        63.64853        -0.08678
C         67.32331        65.78383         0.14490
C         66.01952        65.04634        -0.05472
C         67.29389        67.24635        -0.26320
C         65.98078        67.89261        -0.64773
C         67.17092        70.07408        -0.58769
C         66.02581        69.38860        -0.44481
C         69.93374        31.39813        -0.46710
C         69.89672        32.76490        -0.14657
C         68.75037        33.62851        -0.55759
C         69.65450        35.52432         1.00264
C         68.64595        35.00649         0.00393
C         69.75682        37.04000         0.83409
C         68.58154        37.73083         0.64697
C         69.82430        39.93461         0.92195
C         68.56158        39.17250         0.97344
C         69.79891        41.35299         0.94387
C         68.51712        42.04962         0.98949
C         69.81338        44.27119         1.15890
C         68.50326        43.51696         1.22467
C         69.76041        45.72154         0.88487
C         68.54343        46.37524         0.73357
C         69.81257        48.60127         0.51264
C         68.53592        47.79679         0.32264
C         69.70323        50.05827         0.65056
C         68.51743        50.68207         0.31114
C         69.68995        52.95492         0.53855
C         68.39191        52.16554         0.39578
C         69.70030        54.35374         0.08287
C         68.49137        54.99072        -0.24663
C         69.78615        57.17375        -0.41988
C         68.55000        56.40758        -0.64938
C         69.76051        58.59013        -0.49338
C         68.50310        59.31485        -0.49749
C         69.75180        61.45586        -0.40315
C         68.51642        60.73726        -0.33994
C         69.75787        62.90628        -0.41820
C         68.55444        63.60271        -0.30571
C         69.76675        65.80617        -0.19580
C         68.48870        65.08479        -0.57151
C         69.76220        67.26984        -0.36178
C         68.48117        67.92884        -0.46295
C         69.79921        70.16062        -0.66183
C         68.45801        69.37375        -0.79031
C         69.78838        71.60430        -0.42759
C         72.09035        31.16895         0.60044
C         71.02217        30.60598        -0.10107
C         72.06451        32.52294         0.93126
C         70.98073        33.33396         0.55807
C         72.24671        35.56041         0.95673
C         70.97818        34.77002         0.97315
C         72.20474        37.02916         0.88089
C         71.03363        37.74210         0.89940
C         72.24080        39.95346         0.80068
C         71.03982        39.21673         0.85373
C         72.23007        41.34114         0.80206
C         71.02718        42.07514         0.86918
C         72.17723        44.27509         0.54297
C         71.05157        43.53387         0.83640
C         72.18146        45.70089         0.64997
C         71.02169        46.42466         0.81849
C         72.23405        48.69558         0.95550
C         70.97646        47.89821         1.18800
C         72.19209        50.03208         0.97373
C         70.91198        50.81176         1.19085
C         72.12424        52.88474         0.31378
C         70.96169        52.21878         0.61561
C         72.13460        54.27251         0.01761
C         70.96253        55.02168        -0.05549
C         72.19926        57.20676        -0.16594
C         70.99380        56.47342        -0.23054
C         72.19466        58.58452        -0.30234
C         70.98850        59.30222        -0.45576
C         72.16731        61.46986        -0.78140
C         70.98153        60.75296        -0.54772
C         72.18322        62.87105        -0.77367
C         71.02116        63.60021        -0.55480
C         72.27984        65.87317        -0.46456
C         71.07457        65.05544        -0.26409
C         72.22475        67.22776        -0.38868
C         70.97763        67.96698        -0.32254
C         72.06259        70.10664         0.33718
C         70.98528        69.40441        -0.23883
C         72.00499        71.47764         0.55071
C         70.85415        72.22046         0.17153
O         57.43467        49.32662        -1.09527
O         64.16440        54.88017        -2.13005
O         69.18249        34.80904        -1.34804
O         53.47059        60.45984        -0.76003
O         41.82555        50.55316         1.87842
O         70.39303        65.34346         1.02744
O         69.21461        43.89225         2.45345
O         65.32602        40.49876        -1.51398
O         69.21793        69.75028        -1.96460
O         67.96073        56.72579        -1.95231
O         48.31332        47.28160        -1.76474
O         61.99614        53.44688        -1.87610
O         50.00983        58.27817        -1.27028
O         67.75270        39.38043         2.19855
O         65.18569        41.39497         2.02114
O         65.56173        36.56401        -1.98330
O         54.48165        44.93494         1.34854
O         71.74106        34.99356         2.21054
O         46.90202        48.15966         1.39496
O         50.53953        46.00359        -1.95212
O         44.14159        48.23429        -1.21422
O         56.79108        56.95820        -1.23773
O         65.44719        50.00136        -1.55249
O         69.46867        48.07775        -0.79414
O         58.97443        39.86445        -1.91605
O         54.41171        50.50636        -1.41023
O         68.78612        52.70828         1.70418
O         62.68204        43.58915         2.16331
O         62.89119        46.22376         2.29888
O         57.51851        40.46964         1.28350
O         69.07512        35.29064         2.31426
H         69.80330        35.41679         2.96406
O         61.33368        42.59944        -1.81382
H         61.46988        41.72909        -2.27592
O         42.12180        54.79150         1.79501
H         41.38453        54.21257         2.08363
O         51.41763        52.07526        -1.58809
H         51.70624        52.95532        -1.91255
O         61.40195        60.57908         2.30847
H         61.44534        61.49236         2.66430
O         63.96553        38.51451        -2.55623
H         64.59366        39.29602        -2.50872
O         70.74798        50.97595         2.62697
H         69.94396        51.53479         2.75468
O         51.05598        50.70604         1.79549
H         50.96325        49.77524         2.09062
O         59.92402        48.62158        -1.17863
H         59.09343        49.02480        -1.53531
O         58.42604        48.03892         2.18505
H         57.97025        47.22515         2.52622
O         70.67564        47.93883         2.61108
H         71.45526        47.60862         3.10340
O         52.41415        58.30205         1.92356
H         51.63308        57.75079         2.14445
O         67.61315        65.71791         1.57704
H         66.89262        66.18101         2.05370
O         40.10730        52.22492        -1.81230
H         40.91318        52.54732        -2.26824
O         55.81156        50.62683         1.92047
H         56.50793        51.13463         2.38871
O         61.47133        39.83064        -2.51702
H         60.64722        39.58280        -2.99575
O         68.31874        65.26121        -2.00245
H         67.43934        64.90724        -2.25490
O         53.99364        43.52492        -1.98489
H         53.20680        43.20942        -2.47629
O         54.82112        56.94550         1.87651
H         54.00236        57.38178         2.22417
O         64.83627        52.43410        -2.48929
H         64.17274        53.02897        -2.91087
O         57.11629        45.60906         2.20760
H         56.20244        45.25470         2.34920
O         60.03683        50.08900         2.23377
H         59.46658        49.37616         2.61447
O         54.03448        46.30840        -2.00727
H         53.30490        46.70654        -2.52799
O         65.85363        67.68019        -2.09971
H         66.63400        68.09514        -2.52714
O         65.52100        34.60869         1.11902
H         66.26291        34.33623         1.69962
O         64.61301        61.51555        -1.95863
H         63.72566        61.88566        -2.15461
O         52.24492        53.03954         1.89794
H         51.96402        52.16005         2.24940
O         53.67538        54.94799        -1.90701
H         53.14978        55.68449        -2.28539
O         67.44627        62.89929         1.63799
H         67.64595        63.83540         1.89682
O         58.50699        56.45399         1.98606
H         59.31102        56.02598         2.34868
H         37.34496        49.43295         1.19234
H         35.35818        50.91185         1.36954
H         37.69872        54.26211        -0.02625
H         35.54160        53.33543         0.79124
H         38.92824        48.24419         0.43528
H         39.37223        54.82187        -1.30250
H         41.00400        46.95439         0.29099
H         41.31695        56.10385        -0.68916
H         44.81636        44.63144         0.39224
H         42.75144        45.86662         0.65461
H         44.96723        58.30210        -0.23369
H         42.87024        57.11530         0.03896
H         46.52113        43.66723         0.21130
H         46.54493        59.10921         0.22278
H         48.61586        42.50430         0.13586
H         48.34559        60.55660         0.50400
H         52.32986        40.33049         0.08621
H         50.25719        41.54063        -0.08401
H         52.49688        62.29122         1.92935
H         50.32550        61.18892         1.63166
H         54.00495        39.37729        -0.40099
H         54.08055        63.43647         1.40743
H         56.09238        38.16056        -0.54837
H         56.21003        64.62402         1.49993
H         60.11326        36.12871        -0.65662
H         57.97852        37.16821        -0.28550
H         59.92010        66.77156         1.08410
H         57.82549        65.56847         1.29888
H         61.61039        35.29126        -1.38769
H         61.49558        67.73367         0.71107
H         63.64213        34.03577        -1.23373
H         63.51546        68.95113         0.12862
H         67.54835        32.05271        -1.58135
H         65.41026        33.10093        -1.31343
H         67.16390        71.17306        -0.54960
H         65.08706        69.94465        -0.31096
H         69.10013        30.93819        -1.01478
H         68.92922        72.19522        -0.77274
H         72.94523        30.54648         0.89861
H         71.03350        29.53888        -0.36236
H         72.88784        32.96387         1.51016
H         73.17670        35.06956         0.59730
H         73.17389        37.54355         0.82549
H         73.21055        39.43993         0.76353
H         73.19114        41.87173         0.76670
H         73.12606        43.77994         0.29502
H         73.15293        46.21130         0.58435
H         73.19960        48.18203         0.83170
H         73.13555        50.58849         0.88031
H         73.09520        52.37440         0.35600
H         73.10872        54.75299        -0.13956
H         73.15610        56.69215        -0.00846
H         73.15095        59.12113        -0.24691
H         73.11292        60.93803        -0.94850
H         73.14562        63.38707        -0.89408
H         73.24300        65.38073        -0.66052
H         73.15467        67.80303        -0.50363
H         72.95440        69.55100         0.65968
H         72.85197        71.99534         1.02002
H         70.83638        73.30622         0.34021
