         252
 CSIRO Nanostructure Databank - Neutral Graphene Oxide Data Set
C         30.35597        31.60955        -1.55519
C         30.30176        32.84506        -1.39677
C         30.38273        36.03240        -0.91977
C         30.33713        37.24594        -1.13830
C         30.38877        40.13865         0.19845
C         30.45357        41.02191         1.06568
C         32.71298        28.89340        -0.83010
C         31.59956        29.34905        -1.28868
C         32.80471        31.39098        -1.84728
C         31.41503        30.68049        -1.54568
C         32.72084        32.95386        -1.81970
C         31.50690        33.68101        -1.24881
C         32.77473        35.98840        -1.28755
C         31.54499        35.14765        -0.99677
C         32.76653        37.35590        -1.24444
C         31.48761        38.15071        -1.13939
C         32.83351        39.96448         0.12616
C         31.52026        39.47460        -0.44375
C         32.82540        41.05977         1.10360
C         31.63812        41.65662         1.56217
C         32.94194        43.25678         2.80271
C         31.86719        42.75226         2.46010
C         35.38602        27.94809         0.89496
C         34.66474        29.12780         0.73111
C         33.82491        29.55426        -0.34505
C         35.17227        31.62766        -0.93085
C         33.98201        30.90460        -0.95056
C         35.31573        32.93598        -1.72230
C         34.00203        33.73244        -1.83904
C         35.31354        36.00377        -1.68656
C         34.00282        35.25060        -1.69752
C         35.31110        37.42211        -1.23471
C         34.01636        38.21070        -1.31885
C         35.28325        40.19577        -0.28372
C         33.99529        39.39266        -0.35547
C         35.37401        41.06014         0.95535
C         34.14755        41.47925         1.68630
C         35.37751        43.66761         2.19028
C         34.33601        42.69889         2.69209
C         35.56472        44.99908         2.65101
C         37.52167        28.60810         2.15506
C         36.40979        28.01285         1.71782
C         37.48075        30.16524         1.91184
C         36.35046        30.57473         0.99548
C         37.74592        31.63330        -0.77402
C         36.40119        31.21252        -0.20899
C         37.73512        33.10745        -1.11079
C         36.51365        33.79623        -1.30570
C         37.80968        35.91440        -1.56903
C         36.53505        35.18425        -1.50630
C         37.80110        37.41521        -1.28824
C         36.50687        38.06156        -0.94938
C         37.77505        39.97879        -0.04933
C         36.56049        39.38584        -0.39619
C         37.80103        41.33002         0.51958
C         36.59953        41.89708         1.01215
C         37.63076        44.22450         1.13752
C         36.51744        43.22966         1.49354
C         37.88417        45.30291         2.28330
C         36.49040        45.83504         2.58356
C         39.71366        25.94541         3.13244
C         38.68662        26.63933         3.22588
C         40.00876        28.59495         2.62870
C         38.59902        28.14360         3.11182
C         40.14517        29.88890         1.91166
C         38.85634        30.59683         1.39924
C         40.19451        31.74351        -0.30194
C         38.94530        31.34268         0.13827
C         40.31364        32.92137        -1.19908
C         39.00913        33.71750        -1.45802
C         40.27766        35.86716        -1.26922
C         39.09306        35.19246        -1.44978
C         40.31256        37.29920        -0.97585
C         39.06548        38.04269        -0.85269
C         40.29815        39.93306         0.25344
C         39.03063        39.30494        -0.28673
C         40.27473        41.44616         0.33059
C         39.00928        42.05738         0.60028
C         40.25484        44.25063         0.97033
C         38.95670        43.52899         0.77979
C         40.27898        45.62749         1.56153
C         38.95754        46.27476         1.87122
C         40.14433        48.39055         1.64439
C         39.15552        47.61471         1.96892
C         42.19712        25.63208         2.41686
C         41.06056        26.32070         2.87818
C         42.48829        28.36058         2.56294
C         41.12681        27.75998         2.68611
C         42.69060        29.60738         1.71203
C         41.39326        30.16520         1.16400
C         42.69777        31.51659        -0.45718
C         41.41444        31.16929         0.22722
C         42.84988        32.90216        -1.10360
C         41.54994        33.66670        -1.12064
C         42.85306        35.81370        -1.03458
C         41.55648        35.10671        -1.34488
C         42.78822        37.20778        -0.45518
C         41.51011        37.94970        -0.69596
C         42.73330        40.06484        -0.33706
C         41.55658        39.35049        -0.33992
C         42.69418        41.52966        -0.16908
C         41.46346        42.15660         0.34396
C         42.72468        44.38207         0.49898
C         41.58380        43.50351         1.02451
C         42.62647        45.75028         0.49330
C         41.50552        46.44939         1.20864
C         42.53928        48.52923         0.60922
C         41.36094        47.96475         1.19261
C         43.29885        25.53839         1.84559
C         44.96923        27.37062         1.28359
C         43.90263        26.43542         0.81427
C         45.02881        28.79529         0.87755
C         43.88171        29.57792         0.75442
C         45.28539        31.43824        -0.44369
C         43.94571        30.75080        -0.15463
C         45.22159        32.92193         0.00761
C         44.02618        33.67838        -0.54638
C         45.25944        35.81092        -0.12879
C         44.03571        35.03037        -0.58355
C         45.32316        37.21337        -0.74186
C         44.03598        37.97838        -0.85999
C         45.31923        40.18574        -0.51003
C         44.03048        39.47183        -0.76746
C         45.26841        41.51637        -0.22180
C         43.99020        42.28795        -0.21949
C         45.17830        44.43613         0.12308
C         43.99621        43.72778         0.16715
C         45.10454        45.97889         0.40330
C         43.80953        46.52200        -0.18770
C         43.51430        47.96173         0.10524
C         47.30058        27.57119         1.73565
C         46.18162        26.94055         1.76607
C         47.57548        28.76707         1.11432
C         46.35435        29.44998         0.69296
C         47.72494        31.48360         0.23579
C         46.45874        30.76333         0.24242
C         47.77391        32.86812        -0.08808
C         46.52637        33.59442        -0.39225
C         47.80216        35.82525        -0.29306
C         46.53687        35.08627        -0.49967
C         47.83306        37.21808        -0.26872
C         46.63493        37.95597        -0.73108
C         47.91498        40.10949        -0.22809
C         46.66779        39.48719        -0.86905
C         47.83063        41.56944         0.05198
C         46.50404        42.27739         0.09114
C         47.65254        44.44160        -0.23625
C         46.44819        43.75430        -0.05444
C         47.43423        45.86491        -0.24438
C         46.38403        46.51819        -0.19581
C         50.05427        28.67350         0.30081
C         48.93167        29.39961         1.06009
C         50.18254        31.46143         0.15405
C         48.94686        30.80539         0.45026
C         50.22574        32.88237         0.05378
C         48.99891        33.59299        -0.06657
C         50.20679        35.73902        -0.36767
C         48.98850        35.02984        -0.20033
C         50.26276        37.11908        -0.46404
C         49.11564        37.93484         0.11574
C         50.35860        40.26035         0.22770
C         49.12073        39.46619        -0.05742
C         50.31978        41.70995         0.03519
C         49.06096        42.37132        -0.11267
C         50.18500        44.40645        -0.33591
C         48.92167        43.77904        -0.26047
C         51.14679        29.27168         0.10416
C         52.50684        31.48074        -0.31949
C         51.39449        30.64743        -0.07691
C         52.59121        32.72320        -0.46656
C         51.56418        33.63998         0.17172
C         52.76166        38.62975        -2.70268
C         51.51673        35.09530        -0.27384
C         52.24113        38.18565        -1.65483
C         51.60060        37.71340        -0.52776
C         52.68803        40.57119         0.72682
C         51.60860        39.67632         0.58080
C         52.66186        41.80363         0.48900
C         51.53214        42.53387         0.08736
C         51.32272        43.90776        -0.16253
O         47.14323        41.83908         1.35352
O         34.95664        40.34724         2.16833
O         34.56798        35.80518        -2.93125
O         34.09329        38.90161        -2.70334
O         35.71466        32.63906        -3.15948
O         31.48506        39.37160        -1.89969
O         35.09253        30.25210         1.50948
O         43.18972        42.13472        -1.44645
O         46.48375        34.26342        -1.69271
O         39.68508        32.93405        -2.54727
O         39.63546        31.12858         2.51291
O         43.93211        38.76383        -2.06314
O         31.74779        34.19550         0.08841
O         41.31974        45.85293         2.56286
O         52.51194        35.82830        -0.25794
O         33.23037        33.46448        -3.06319
O         37.82730        36.90822        -2.65471
O         46.10796        37.29605        -1.95356
O         43.41970        27.96983         3.25203
O         39.63033        44.23257        -0.34871
O         51.83589        38.31511         0.74131
O         43.15381        30.46275        -1.37112
O         43.46542        26.45558        -0.31415
O         42.47205        35.64358        -2.41088
O         45.25612        35.88868         1.31910
H         44.40520        36.31844         1.59036
O         45.08952        46.19441         1.79719
H         45.94193        45.90176         2.18004
O         43.13261        30.61362         2.68250
H         43.75957        30.16851         3.29702
O         37.21810        30.80085         3.15915
H         38.06427        30.82340         3.66567
O         49.36435        29.49622         2.41510
H         50.25877        29.89660         2.44352
O         43.80725        46.25563        -1.57377
H         43.00520        46.63681        -1.98472
O         34.79267        42.20658         3.93249
H         34.28196        41.40578         4.17164
O         51.86952        33.73645         1.56848
H         52.67973        34.28125         1.67222
O         42.84009        37.03515         1.00834
H         42.31654        37.75582         1.42690
O         38.36576        44.59542         3.41745
H         38.61522        45.23447         4.11733
O         33.04772        30.96532        -3.17898
H         33.98990        31.13761        -3.43049
O         45.56378        31.39207        -1.84525
H         44.75148        31.67915        -2.33394
O         37.99301        30.86561        -1.99613
H         38.67302        31.37424        -2.51171
O         46.82757        39.77845        -2.27599
H         46.28503        39.11928        -2.77189
O         41.88331        43.19955         2.41226
H         41.95003        44.06571         2.88487
O         45.12810        32.93560         1.44963
H         45.15380        33.87881         1.74287
O         35.72767        31.22244        -3.40394
H         36.59071        30.91730        -2.98715
O         33.28841        38.18395        -3.64163
H         32.42482        38.67036        -3.61480
O         43.17465        32.70502        -2.51454
H         42.40290        32.29143        -2.95815
O         37.16418        44.92907        -0.01714
H         37.91253        45.00528        -0.65324
O         40.36297        39.49470         1.66721
H         39.64026        39.94648         2.15492
O         38.38313        28.72359         4.39398
H         37.44763        28.58620         4.65228
O         35.25737        41.10101        -1.41750
H         35.05953        40.57413        -2.22618
O         49.24165        37.75715         1.56831
H         50.16337        37.99654         1.82009
