         320
 CSIRO Nanostructure Databank - Neutral Graphene Oxide Data Set
C         30.09653        31.77257         0.33958
C         30.32402        33.02700         0.36326
C         30.23219        36.14448        -0.09574
C         30.20853        37.25244        -0.62852
C         30.20423        40.42884        -0.74626
C         30.20058        41.58791        -0.33143
C         32.52867        28.90970         0.27713
C         31.43387        29.47928         0.33848
C         32.54390        31.61501         0.15320
C         31.26416        30.89960         0.79790
C         32.67292        33.11229         0.59268
C         31.37132        33.92228         0.37836
C         32.64377        36.10541        -0.14590
C         31.37411        35.41594         0.51067
C         32.63878        37.34566        -0.70829
C         31.35135        38.07820        -1.03853
C         32.63223        40.37843        -0.90730
C         31.33499        39.57169        -1.09326
C         32.65051        41.70672        -0.18923
C         31.28075        42.33834         0.38551
C         32.53470        44.36000         0.34893
C         31.43949        43.81538         0.18594
C         35.38759        27.30759         0.92610
C         35.12316        28.66786         0.31676
C         33.86486        29.39872         0.78018
C         35.11413        31.57452         0.04250
C         33.86097        30.88645         0.38706
C         35.13063        33.09154         0.14999
C         33.81764        33.82432        -0.16763
C         35.18648        35.94019        -0.49894
C         33.91938        35.34839         0.19149
C         35.15671        37.48218        -0.45347
C         33.92425        38.04877        -1.22877
C         35.22078        40.34117        -0.88214
C         33.90876        39.61201        -1.09817
C         35.14829        41.87695        -0.60273
C         33.82831        42.36923        -0.00569
C         35.17928        44.61732         0.44400
C         33.89961        43.83695         0.44312
C         35.40071        46.03959         0.33075
C         37.81750        27.37226         1.01205
C         36.50003        26.76682         1.00583
C         37.77043        28.71071         0.74839
C         36.43484        29.47562         0.84279
C         37.72683        31.69281         0.51234
C         36.44885        30.87122         0.22748
C         37.67291        33.04725        -0.24728
C         36.43707        33.82954         0.21031
C         37.74358        35.96571        -0.38908
C         36.46838        35.36313         0.17206
C         37.75181        37.32928        -0.51504
C         36.50256        38.04336        -1.01170
C         37.67947        40.21516        -0.10184
C         36.51184        39.57070        -0.84677
C         37.66568        41.74460        -0.38444
C         36.39087        42.38521         0.21758
C         37.65819        44.55542         0.42113
C         36.48365        43.90188         0.23777
C         37.83348        46.01640         0.91140
C         36.27908        46.91940         0.26844
C         40.30409        24.58136         1.04224
C         39.27180        25.25407         1.06548
C         40.36731        27.38294         0.92537
C         39.08241        26.69234         1.43264
C         40.32205        28.71209         0.62823
C         39.05329        29.51443         0.92711
C         40.28791        31.64974         0.26999
C         38.96857        30.83655         0.10337
C         40.22240        33.02797        -0.40459
C         38.98113        33.83593        -0.20353
C         40.22430        35.92674        -0.80747
C         38.98364        35.19487        -0.39708
C         40.28227        37.41602        -0.59658
C         39.01073        38.06257        -0.09738
C         40.23391        40.21490         0.26546
C         39.03390        39.56687        -0.47573
C         40.29175        41.71555         0.10324
C         38.98281        42.42632         0.02302
C         40.22754        44.47684         0.43641
C         38.91298        43.75764         0.72326
C         40.12317        45.80789        -0.01734
C         39.02671        46.68152         0.15989
C         40.55733        48.73432         0.24082
C         39.54283        47.97257         0.09014
C         42.90386        24.52540         1.05491
C         41.62500        25.15511         1.49502
C         42.76890        27.20979         0.41547
C         41.63913        26.62905         0.90369
C         42.77423        28.62790        -0.13988
C         41.64076        29.47613         0.48504
C         42.82269        31.57733        -0.14325
C         41.49763        30.81664        -0.27853
C         42.82403        33.06000        -0.33803
C         41.51953        33.72045        -0.68254
C         42.83237        35.95550        -0.86813
C         41.53758        35.20135        -0.91986
C         42.86240        37.49333        -0.77357
C         41.55935        38.11886        -0.39281
C         42.72992        40.13134         0.75650
C         41.57542        39.60240        -0.19936
C         42.70762        41.67573         0.72747
C         41.52837        42.38931         0.62422
C         42.67635        44.55835         1.24132
C         41.46153        43.84204         0.64337
C         42.80944        46.07500         1.13289
C         42.07985        46.87488         0.28339
C         43.02065        48.81097         1.17534
C         41.87420        48.32698         0.46919
C         43.89633        25.12745         0.65407
C         45.17653        27.28565         0.98610
C         44.12602        26.51535         0.18566
C         45.24622        28.77704         0.51019
C         44.11387        29.37823         0.05820
C         45.31986        31.64042        -0.20103
C         44.10202        30.81270        -0.47036
C         45.34364        33.04758        -0.38951
C         44.09395        33.80946        -0.55272
C         45.32018        35.95267        -0.46045
C         44.08709        35.18608        -0.59727
C         45.28861        37.28145        -0.15473
C         43.97986        37.94951         0.25739
C         45.32507        40.20044         0.63943
C         44.01882        39.45236         0.39545
C         45.18480        41.69755         0.35766
C         44.01243        42.37858         1.06208
C         45.13905        44.64087         0.74003
C         43.98532        43.88476         0.84460
C         45.16781        46.03285         1.15875
C         44.01213        46.64968         1.91228
C         43.89381        48.13539         1.74995
C         47.63385        27.34132         0.53858
C         46.56502        26.78031         0.74948
C         47.91364        28.78112         0.52422
C         46.56096        29.52634         0.56080
C         47.81755        31.57180        -0.55534
C         46.59223        30.94973         0.11536
C         47.88261        33.05721        -0.13879
C         46.56255        33.74878        -0.42484
C         47.87406        35.87358        -0.31989
C         46.59605        35.20784        -0.79863
C         47.83741        37.37977        -0.33886
C         46.55418        38.00234         0.25495
C         47.79049        40.28355        -0.20705
C         46.44387        39.51636        -0.18723
C         47.75493        41.84506        -0.30272
C         46.38949        42.50421        -0.01953
C         47.71843        44.70425         0.33419
C         46.36327        44.05506        -0.01678
C         47.47967        46.08553         0.53799
C         46.40523        46.64113         0.89032
C         50.40225        28.81506        -0.41160
C         49.16040        29.44414         0.05663
C         50.31871        31.54688        -0.74842
C         49.16808        30.88546        -0.38992
C         50.36583        33.01966        -0.68785
C         49.06898        33.77770        -0.80437
C         50.34319        35.96474        -0.24338
C         49.07903        35.23146        -0.38152
C         50.36488        37.32440        -0.09875
C         49.07826        38.02249         0.31346
C         50.34691        40.23766         0.54593
C         49.08157        39.53972         0.04935
C         50.24357        41.78429         0.54548
C         48.92946        42.51073         0.41105
C         50.23087        44.47815         0.63540
C         48.90444        44.02141         0.38355
C         51.47146        29.37751        -0.67156
C         52.81935        31.58986        -0.72364
C         51.64478        30.76210        -1.20576
C         52.66660        32.81742        -0.63741
C         51.55215        33.71546        -0.57305
C         52.65191        36.06285        -0.85470
C         51.66033        35.15053        -0.15761
C         52.66981        37.29046        -0.73221
C         51.69704        38.10135         0.09067
C         52.71459        40.45722         0.38969
C         51.59957        39.60557        -0.20185
C         52.68104        41.65399         0.69948
C         51.59078        42.60049         0.28548
C         51.34382        43.96204         0.87531
O         31.32741        38.77442        -2.29622
O         37.95260        46.10774         2.17022
O         40.76699        33.05612        -1.76965
O         48.68097        39.85415        -1.29289
O         41.26056        46.29604        -0.69496
O         48.86481        29.28914         1.47618
O         42.87773        32.44082         1.01217
O         34.55931        44.08969         1.70819
O         49.42726        42.10401         1.72550
O         39.89603        42.36205        -1.13087
O         36.06135        40.16098        -2.08236
O         35.76179        33.41228         1.43495
O         40.06933        36.83623        -1.94026
O         48.78507        33.76587        -2.29513
O         42.25932        35.52964        -2.15468
O         45.39143        42.05660        -1.02232
O         44.09170        30.58637        -1.98728
O         33.29345        40.34041        -2.22227
O         46.65461        30.61253         1.55271
O         35.88851        30.98049        -1.08686
O         47.86255        37.64303        -1.76729
H         47.30992        36.94199        -2.20864
O         40.48441        31.89916         1.67163
H         39.58972        32.02954         2.08638
O         42.09112        29.75992         1.81922
H         41.55721        30.52198         2.16356
O         39.02509        37.85712         1.34146
H         38.23068        38.33148         1.70014
O         34.99186        37.93389         0.89545
H         35.56569        37.35871         1.46837
O         31.23247        42.03170         1.75342
H         30.54574        42.57835         2.18670
O         45.95918        39.50946        -1.53588
H         46.67089        39.10293        -2.08809
O         41.86750        40.21353        -1.49338
H         42.55211        39.64641        -1.93968
O         35.14903        42.55575        -1.86888
H         34.68673        41.98476        -2.52205
O         45.59686        40.15227         2.05497
H         45.76317        39.21003         2.31123
O         38.73618        30.47444        -1.26528
H         39.60625        30.21114        -1.67576
O         48.14671        33.11958         1.27814
H         47.59191        32.44999         1.73891
O         43.55502        37.32522         1.50130
H         44.29022        37.42333         2.14535
O         39.12755        29.81108         2.34734
H         39.20479        28.94731         2.81840
O         31.43252        35.73795         1.92488
H         30.96533        36.58787         2.07104
O         34.07124        35.46576         1.62834
H         33.23092        35.83477         2.00350
O         43.94627        31.87151        -2.62233
H         44.82402        32.00380        -3.05830
O         52.02970        35.11093         1.21120
H         52.16167        36.03941         1.52645
O         52.07318        37.92294         1.45781
H         52.74327        38.60794         1.68414
O         49.87333        34.46210        -2.94573
H         49.60921        35.41478        -2.89926
O         32.96724        33.06448         1.98788
H         33.51097        33.85549         2.22678
O         44.20030        42.19964         2.49470
H         43.48491        42.73427         2.92572
O         41.57485        25.27393         2.90014
H         41.71659        24.39282         3.30415
O         37.43095        39.92207         1.28682
H         37.98823        40.51818         1.83940
O         34.00005        37.75398        -2.62175
H         33.30732        38.29916        -3.06543
O         46.62101        35.29902        -2.28355
H         47.30453        34.65611        -2.60670
O         32.28800        31.46681        -1.24873
H         32.88846        32.06406        -1.75986
O         36.55926        37.74917        -2.42959
H         36.28376        38.57316        -2.90706
O         51.68539        42.71553        -1.12457
H         52.44875        43.28634        -1.35284
O         36.28261        29.70999         2.25709
H         36.13302        28.84533         2.69987
O         39.20674        39.70034        -1.89090
H         40.16187        39.88348        -2.08351
O         51.61865        30.75869        -2.60685
H         52.41994        30.30983        -2.94570
O         42.44702        39.74589         2.12836
H         43.17926        40.12381         2.66786
O         37.81045        32.00333         1.90960
H         37.48194        31.22192         2.42101
O         36.22138        41.99470         1.58803
H         35.63199        42.67066         2.01525
O         35.09090        28.55915        -1.07222
H         35.88903        28.09329        -1.39340
O         49.04943        37.78136         1.74421
H         49.81399        38.28386         2.13578
O         44.82570        27.23365         2.34932
H         45.48955        27.72618         2.87449
O         41.28050        30.52827        -1.66570
H         41.36873        31.37408        -2.17257
O         50.54322        39.88533         1.93439
H         50.11457        40.58547         2.48265
O         33.51031        33.69198        -1.55840
H         34.14449        34.24918        -2.08297
O         46.50797        37.80720         1.69549
H         47.42301        37.66041         2.05140
O         35.23503        35.53008        -1.87185
H         35.68766        36.24675        -2.40001
O         43.31168        37.99266        -2.06383
H         42.86436        37.43210        -2.74119
O         37.58104        41.98022        -1.78871
H         38.32902        41.50435        -2.21897
O         44.05430        46.27788         3.29611
H         43.51676        46.91559         3.81084
O         40.05108        40.10265         1.68608
H         40.22142        39.17101         1.96238
O         36.55076        35.82417         1.54911
H         36.14357        35.12362         2.11495
O         39.13265        26.78852         2.86636
H         39.93242        26.28516         3.16449
O         51.53800        39.82781        -1.57743
H         51.52981        40.79813        -1.75269
O         44.48338        26.56907        -1.19583
H         44.05738        25.81820        -1.65933
O         48.02477        42.18121        -1.67881
H         47.26856        41.85324        -2.21344
O         38.86807        43.51842         2.14716
H         38.52773        44.35800         2.56023
O         33.78821        29.34035         2.20387
H         32.98812        29.84639         2.48724
O         42.56493        28.46337        -1.54874
H         43.34042        27.96788        -1.90156
O         47.50019        31.46702        -1.96596
H         48.22983        31.88014        -2.48354
O         37.46895        32.83065        -1.65626
H         37.96728        32.01779        -1.92270
O         31.32783        30.90682         2.19932
H         30.49812        30.53904         2.56764
O         42.47487        44.25772         2.66429
H         43.08651        44.85025         3.17828
O         46.13459        44.47157        -1.37905
H         45.48483        43.84400        -1.77176
