         324
 CSIRO Nanostructure Databank - Neutral Graphene Oxide Data Set
C          2.06385         2.56380        -3.43877
C          2.10515         3.93641        -3.40507
C          3.19636         1.79014        -3.10385
C          3.42317         4.63992        -3.21918
C          2.28040         6.88922        -3.17669
C          2.14764         8.24172        -2.70775
C          3.32792         6.09428        -2.81516
C          3.10607         8.85271        -1.95228
C          1.74735        10.97922        -1.69755
C          1.74551        12.32580        -1.61432
C          2.88324        10.14134        -1.17403
C          2.84459        13.08511        -1.04383
C          1.54467        15.21018        -1.03025
C          1.48924        16.55555        -0.77403
C          2.73443        14.45116        -0.78936
C          2.59977        17.27639        -0.21217
C          2.51398        18.69038        -0.04463
C          4.33523         2.40832        -2.51220
C          4.37277         3.83255        -2.36333
C          5.41315         1.62901        -2.04008
C          5.35816         4.43945        -1.54123
C          4.49229         6.70047        -2.14198
C          4.40479         8.19139        -1.74011
C          5.39548         5.85063        -1.36481
C          5.33823         8.73502        -0.72767
C          4.20647        10.92808        -1.15553
C          4.03999        12.34168        -0.64936
C          5.27264        10.12178        -0.42896
C          4.98846        12.91225         0.15210
C          3.98221        15.19044        -0.35639
C          3.78120        16.60313         0.15591
C          4.84082        14.33361         0.54505
C          4.87932        17.29821         0.74638
C          3.63419        19.39851         0.30047
C          4.86692        18.75442         0.66087
C          6.50235         2.22983        -1.36784
C          6.42498         3.62016        -1.00651
C          7.65760         1.49078        -1.03987
C          7.47403         4.19388        -0.25742
C          6.20827         6.44049        -0.29435
C          6.31011         7.91847        -0.10253
C          7.27469         5.53152         0.32924
C          7.30399         8.50019         0.71680
C          6.21899        10.70174         0.41111
C          6.03860        12.11057         0.82424
C          7.34260         9.94115         0.91983
C          7.13577        12.81186         1.59590
C          5.98242        15.03829         1.21639
C          6.02360        16.52283         1.17003
C          7.22424        14.29242         1.52309
C          7.18094        17.05771         1.71663
C          6.01185        19.58368         0.66146
C          7.26248        19.16387         1.18697
C          8.76981         2.10941        -0.42838
C          8.67103         3.48155        -0.01172
C          9.98105         1.40370        -0.23862
C          9.80127         4.12187         0.62454
C          8.40441         6.15723         1.07738
C          8.35025         7.67161         1.35808
C          9.69114         5.45683         1.08520
C          9.64290         8.36248         1.60620
C          8.41483        10.58819         1.56506
C          8.35452        12.02803         2.08216
C          9.54800         9.76741         2.16701
C          9.66044        12.79872         1.90441
C          8.43911        14.93988         1.66524
C          8.46511        16.40663         1.67470
C          9.67349        14.16703         1.81834
C          9.63267        17.17293         1.58460
C          8.55514        19.37994         0.76014
C          9.69339        18.59534         1.22147
C         11.10875         2.02649         0.33550
C         11.00670         3.37519         0.79509
C         12.35829         1.32697         0.37063
C         12.16138         3.96911         1.49101
C         10.85933         6.18478         1.61916
C         10.81291         7.67472         1.59582
C         12.16563         5.44349         1.77320
C         12.09554         8.40089         1.51894
C         10.89782        10.52393         2.19344
C         10.92506        12.04643         2.12009
C         12.13991         9.83150         1.80659
C         12.19778        12.71631         1.76051
C         10.93624        14.94551         2.01446
C         10.91346        16.44855         1.84769
C         12.29771        14.21428         2.00737
C         12.22919        17.14009         1.57546
C         10.91355        19.24480         1.08290
C         12.22027        18.61682         1.23796
C         13.54759         1.92232         0.79618
C         13.48784         3.25308         1.44401
C         14.79781         1.28101         0.71176
C         14.74925         4.02072         1.59036
C         13.46574         6.15299         1.73096
C         13.41006         7.60183         1.52333
C         14.70470         5.47823         1.76662
C         14.62233         8.40570         1.80003
C         13.35087        10.54128         1.59041
C         13.34889        12.00536         1.54751
C         14.56462         9.83514         1.45487
C         14.63536        12.72280         1.28364
C         13.31465        14.85317         1.07411
C         13.32132        16.34838         0.92926
C         14.59900        14.15396         0.89684
C         14.58408        17.02064         0.58096
C         13.39279        19.18924         0.58424
C         14.58116        18.45384         0.42961
C         15.99543         1.93830         1.09425
C         15.94286         3.34809         1.46642
C         17.22544         1.26644         1.02479
C         17.21629         4.02907         1.90070
C         15.94586         6.19852         1.75735
C         15.93771         7.66448         1.88647
C         17.20749         5.53108         1.65354
C         17.20210         8.43793         1.62868
C         15.77195        10.45315         0.90579
C         15.84885        11.93721         0.89099
C         17.11534         9.74317         0.91732
C         16.95556        12.57338         0.09945
C         15.72636        14.81973         0.47101
C         15.73848        16.26580         0.31239
C         16.93716        14.06602         0.02806
C         16.95937        16.92600        -0.04253
C         15.78093        19.08866         0.02371
C         16.96520        18.35467        -0.17192
C         18.47995         1.94182         1.19484
C         18.46790         3.31246         1.46994
C         19.72474         1.25527         0.96921
C         19.72540         4.05718         1.55210
C         18.40739         6.22344         1.51615
C         18.49320         7.69426         1.49517
C         19.63815         5.49472         1.16082
C         19.67754         8.40438         0.94420
C         18.36371        10.49320         0.66589
C         18.25912        11.78122        -0.13291
C         19.59002         9.82877         0.68133
C         19.51363        12.63418        -0.03320
C         18.21976        14.78088        -0.15261
C         18.18664        16.19582        -0.22525
C         19.44826        14.06352        -0.21875
C         19.39698        16.90646        -0.50036
C         18.17657        19.03808        -0.47275
C         19.38398        18.35321        -0.62392
C         20.96646         1.90004         0.99129
C         21.02443         3.34293         1.31726
C         22.18230         1.25737         0.66951
C         22.23206         4.11728         0.95043
C         20.88127         6.23657         0.77840
C         20.86580         7.71971         0.74999
C         22.18533         5.53883         0.83971
C         22.07987         8.41053         0.40047
C         20.79743        10.52738         0.26833
C         20.74092        11.96658         0.00832
C         21.99762         9.82667         0.14391
C         21.96994        12.70182        -0.19833
C         20.66049        14.79205        -0.45880
C         20.59886        16.19438        -0.66568
C         21.92828        14.10088        -0.46737
C         21.79673        16.92698        -1.11971
C         20.59351        19.06757        -0.84794
C         21.81274        18.40526        -1.04780
C         23.41241         1.96433         0.61482
C         23.42962         3.40825         0.76028
C         24.62309         1.30082         0.33729
C         24.67823         4.11526         0.72102
C         23.35134         6.28997         0.64304
C         23.29995         7.69098         0.36518
C         24.64463         5.59084         0.88772
C         24.55547         8.35639        -0.07454
C         23.20618        10.55491        -0.30302
C         23.21533        12.02731        -0.24266
C         24.53170         9.83281        -0.36723
C         24.43410        12.72412        -0.41881
C         23.14716        14.78647        -0.72080
C         23.11819        16.19691        -1.14821
C         24.39360        14.13389        -0.64103
C         24.36111        16.98673        -1.10550
C         23.02673        19.08614        -1.21084
C         24.28777        18.41778        -1.24436
C         25.85263         2.00004         0.25040
C         25.86335         3.42699         0.49195
C         27.05529         1.33445        -0.06474
C         27.17533         4.10545         0.54884
C         25.93690         6.35470         0.83244
C         25.88192         7.70266         0.17809
C         27.23511         5.59626         0.75903
C         27.10450         8.50549         0.13207
C         25.75452        10.64475        -0.19064
C         25.71001        12.03155        -0.34644
C         27.02163         9.96520         0.07262
C         26.93679        12.79811        -0.52858
C         25.62743        14.88265        -0.80848
C         25.58639        16.33093        -0.97951
C         26.84707        14.22561        -0.74616
C         26.80587        17.08756        -1.08374
C         25.48096        19.15359        -1.33393
C         26.74213        18.51061        -1.28548
C         28.29190         2.02450        -0.22938
C         28.35784         3.42279        -0.00683
C         29.48284         1.33638        -0.61073
C         29.55772         4.14916        -0.25571
C         28.49018         6.32907         0.36855
C         28.40877         7.85409         0.15913
C         29.60217         5.57021        -0.18302
C         29.50834         8.52638        -0.61288
C         28.31257        10.77794        -0.18754
C         28.17240        12.15747        -0.62373
C         29.49796        10.01596        -0.69999
C         29.36711        12.82574        -1.27485
C         28.10490        15.00553        -0.73067
C         28.06238        16.44921        -1.01951
C         29.42027        14.29488        -0.89657
C         29.26373        17.16632        -1.23704
C         27.94344        19.23878        -1.41537
C         29.19331        18.59195        -1.41687
C         30.68290         2.01577        -0.73621
C         30.75122         3.41828        -0.57513
C         32.00783         4.12249        -0.64262
C         30.82064         6.26910        -0.64750
C         30.80121         7.78060        -0.83634
C         32.06804         5.48060        -0.61987
C         32.02042         8.61199        -0.81625
C         30.77210        10.75177        -0.87759
C         30.71351        12.14268        -1.05651
C         31.98476         9.97869        -0.84782
C         31.86119        12.94483        -1.26073
C         30.62169        15.06472        -1.28037
C         30.54385        16.50381        -1.33601
C         31.80388        14.33156        -1.45207
C         31.69251        17.29060        -1.54193
C         30.39426        19.33485        -1.60857
C         31.61620        18.68769        -1.65864
O         16.52835        13.20597        -1.14323
O         16.25054         9.73224        -0.27929
O         27.86688        10.54368         1.16984
O         23.77275        10.09696        -1.59103
O         15.23910         8.13554         3.10078
O         15.72084        12.44702         2.25526
O         19.98646         5.66326        -0.27207
O         12.60390        18.06728         2.59826
O          7.14429        18.31397         2.30555
O         20.58070         3.70721         2.68828
O         12.64975         3.21136         2.65467
O         28.89592         7.29632         1.42354
O          5.95516        12.29459         2.29326
O         18.09671         8.38213         2.76605
O         22.33843        16.40768        -2.38582
O          5.99018         5.70127         0.97295
O         28.94806        14.63216         0.43832
O         11.01554        11.34213         3.40765
O          7.97031         6.70455         2.37151
O         27.45052         4.70990         1.88436
O         12.78968         8.01048         0.25735
O         12.76806        15.46411        -0.13119
O         11.34115         5.74517         2.95728
O         25.27140         6.18543         2.10713
O          5.12618         7.76077        -2.93736
O          4.77162        14.59060         1.96250
O         10.86222        15.82298         3.18146
O         30.66170         6.90290        -2.00878
O         25.21699         7.60206        -1.16438
O         29.07242         9.17868        -1.84921
O          4.05443         4.66058        -4.56112
H          4.10359         3.72940        -4.86703
O          4.79498        15.34327        -1.57938
H          4.25820        15.84809        -2.22694
O         29.14087        12.80777        -2.71789
H         29.14530        11.87304        -3.01666
O          4.61284        11.03192        -2.54637
H          5.44147        11.55182        -2.59311
O         18.23333        11.33620        -1.52083
H         17.68047        11.98512        -2.01725
O         17.23295         3.90620         3.36832
H         16.42583         4.34478         3.71471
O         12.89033        14.34924         3.31575
H         12.21893        14.11536         3.99124
O          8.19636        11.95905         3.53665
H          7.23470        11.80935         3.69846
O          2.59160         9.77552         0.19907
H          1.68989         9.39505         0.23615
O          9.18538         9.50723         3.54514
H          9.11167        10.39120         3.98645
H          1.13046         2.05133        -3.71446
H          1.21125         4.51291        -3.67979
H          3.15994         0.69499        -3.18132
H          1.44145         6.47526        -3.75280
H          1.18936         8.74203        -2.90581
H          0.85674        10.47366        -2.09951
H          0.86446        12.87326        -1.97837
H          0.64639        14.70674        -1.41302
H          0.56454        17.11272        -0.98288
H          1.57579        19.20682        -0.29235
H          5.41916         0.54418        -2.22165
H          3.60569        20.49771         0.31215
H          7.71731         0.42906        -1.32049
H          5.93019        20.56886         0.17689
H         10.05569         0.36207        -0.58278
H          8.75797        20.17424         0.02667
H         12.38991         0.30578        -0.03786
H         10.90707        20.26996         0.68190
H         14.85143         0.25175         0.32675
H         13.36539        20.24532         0.27850
H         17.23274         0.20115         0.75031
H         15.79676        20.18129        -0.09835
H         19.68814         0.18174         0.73037
H         18.16038        20.13433        -0.55945
H         22.18069         0.17757         0.45783
H         20.56700        20.16740        -0.85178
H         24.61669         0.21148         0.18372
H         23.01962        20.18629        -1.23431
H         27.03200         0.24769        -0.23373
H         25.43775        20.24628        -1.45191
H         29.44410         0.24923        -0.76872
H         27.90078        20.33004        -1.54791
H         31.60160         1.46357        -0.98193
H         32.93212         3.53076        -0.71853
H         33.03249         5.99784        -0.72081
H         32.99516         8.10492        -0.85831
H         32.94317        10.51612        -0.88894
H         32.85128        12.46767        -1.27558
H         32.74491        14.85424        -1.67399
H         32.67901        16.81290        -1.61252
H         30.33528        20.42622        -1.72667
H         32.53872        19.26563        -1.80862
