         334
 CSIRO Nanostructure Databank - Neutral Graphene Oxide Data Set
C         31.23651        57.06424        -1.93400
C         31.40956        58.38951        -2.24068
C         30.76347        59.01584        -3.36902
C         32.21742        60.96951        -3.12526
C         31.13352        60.26483        -3.77445
C         32.84498        52.92869         0.07752
C         32.88092        54.28666         0.05840
C         31.95789        55.02766        -0.76903
C         33.11975        57.13535        -0.28000
C         32.04015        56.38955        -0.94058
C         33.21880        58.54288        -0.48568
C         32.19556        59.28141        -1.30970
C         34.01731        61.13227        -1.38546
C         32.78336        60.49989        -1.98438
C         35.06904        48.47401         0.48662
C         35.06511        49.91973         1.03408
C         33.98674        50.73724         0.41790
C         35.20255        52.83643         0.90789
C         33.83060        52.14016         0.88986
C         35.21676        54.24711         1.00556
C         33.90913        55.02179         0.90542
C         35.42709        57.12707         0.59841
C         34.10153        56.44444         0.43081
C         35.29382        58.59049         0.98770
C         34.07493        59.34633         0.36069
C         35.45988        61.45346         0.63044
C         34.17358        60.84948         0.12599
C         37.71573        44.28827         0.61557
C         37.68083        45.67823         0.55181
C         36.44176        46.39176         0.69478
C         37.60183        48.52473         0.41685
C         36.39060        47.76186         0.62128
C         37.56365        49.95830         0.53743
C         36.38826        50.66133         0.80582
C         37.68956        52.76173         1.31243
C         36.38166        52.08186         0.95923
C         37.66141        54.25779         1.20397
C         36.43137        54.93109         1.23321
C         37.71104        57.08889         1.55493
C         36.37281        56.39664         1.56840
C         37.68401        58.56470         1.83518
C         36.51916        59.30574         1.20364
C         37.79958        61.40086         1.38432
C         36.56713        60.73304         1.09133
C         40.25560        40.08139         0.72177
C         40.19496        41.44268         0.39588
C         38.95714        42.18143         0.51833
C         40.23519        44.30892         0.31810
C         38.92439        43.55596         0.43270
C         40.08970        45.76367        -0.07560
C         38.86914        46.43069         0.19303
C         39.92529        48.58871        -0.56525
C         38.79267        47.84422         0.10212
C         40.05720        50.01006        -0.05709
C         38.85043        50.69611         0.46739
C         40.02551        52.88777         0.43061
C         38.86883        52.16495         0.60328
C         40.09755        54.28364         0.83271
C         38.89497        54.95902         1.16708
C         40.17189        57.07938         1.46436
C         38.90200        56.40122         1.38133
C         40.19350        58.52017         1.60814
C         38.99248        59.25592         1.61304
C         40.25926        61.34869         1.66200
C         39.00656        60.68018         1.56994
C         42.84446        35.89760         1.28695
C         42.77102        37.25291         0.89441
C         41.54584        37.97200         0.92173
C         42.63192        40.04447         0.14304
C         41.47018        39.35598         0.60637
C         42.57654        41.41813        -0.16717
C         41.36798        42.11462        -0.05841
C         42.58622        44.29001        -0.50483
C         41.26483        43.55011        -0.53177
C         42.52015        45.76512        -0.82770
C         41.26528        46.49152        -0.39965
C         42.48828        48.65214        -0.53715
C         41.26262        47.88914        -0.48765
C         42.50257        50.05729        -0.48933
C         41.19333        50.81293        -0.66704
C         42.54173        52.96581        -0.00146
C         41.22396        52.27787        -0.20682
C         42.57586        54.29026         0.65500
C         41.36058        54.96368         0.90982
C         42.63942        57.01578         1.43981
C         41.38857        56.35902         1.30914
C         42.69476        58.43693         1.95507
C         41.42521        59.21274         1.72260
C         42.73986        61.31660         2.10588
C         41.44137        60.62024         1.78749
C         45.39801        33.21340         1.81186
C         44.16511        33.85147         1.72071
C         45.28943        35.92363         1.01358
C         44.08312        35.21821         1.32824
C         45.22730        37.28110         0.57362
C         43.97212        37.91225         0.46926
C         45.15968        40.02813        -0.31456
C         43.87468        39.27594        -0.05691
C         45.09458        41.53734        -0.18502
C         43.78834        42.12022        -0.75351
C         45.04588        44.33062        -0.45384
C         43.77360        43.62115        -0.53754
C         44.97654        45.77889        -0.19151
C         43.75609        46.52980        -0.44889
C         44.99649        48.65374        -0.55885
C         43.75058        47.91702        -0.45840
C         44.97024        50.09505        -0.59052
C         43.73930        50.79279        -0.40566
C         45.02760        52.85019         0.08151
C         43.78993        52.18758        -0.13310
C         45.04646        54.20177         0.59586
C         43.84383        54.91524         0.85117
C         45.08263        57.04889         1.17781
C         43.85835        56.32448         1.21474
C         45.10158        58.47705         1.18441
C         43.91137        59.19267         1.47548
C         45.10132        61.28588         1.18381
C         43.92712        60.58761         1.52903
C         46.58394        33.90293         1.54463
C         47.74995        35.99799         0.94303
C         46.55502        35.26555         1.15471
C         47.72639        37.36554         0.59999
C         46.45775        38.02122         0.35688
C         47.63925        40.16807        -0.01640
C         46.43757        39.37751         0.02074
C         47.61194        41.54804        -0.30005
C         46.33346        42.20736        -0.79043
C         47.52852        44.43213        -0.53998
C         46.27829        43.69988        -0.52432
C         47.53973        45.82970        -0.57680
C         46.31416        46.57477        -0.28263
C         47.41076        48.63898        -1.17638
C         46.21601        47.97823        -0.63975
C         47.36746        50.16493        -1.24143
C         46.17849        50.83072        -0.68436
C         47.52941        52.85724        -0.21110
C         46.24528        52.16917        -0.23992
C         47.66212        54.08647         0.66310
C         46.33680        54.80585         0.95179
C         47.60682        57.07405         0.95380
C         46.35322        56.32934         1.17557
C         47.56676        58.47365         0.85669
C         46.32189        59.18999         0.96770
C         47.49786        61.42689         0.53413
C         46.28684        60.60824         0.90523
C         48.91736        38.11686         0.49989
C         50.09626        40.24545         0.13150
C         48.90288        39.50220         0.22071
C         50.07956        41.62993        -0.14266
C         48.81436        42.30354        -0.34056
C         50.00629        44.44823        -0.62902
C         48.78729        43.71334        -0.55095
C         50.00224        45.85265        -0.83971
C         48.74414        46.57426        -0.86011
C         49.96374        48.63698        -1.63067
C         48.70953        47.94117        -1.11363
C         49.95107        50.16813        -1.48056
C         48.64977        50.93875        -1.33288
C         49.86341        53.15520        -1.09174
C         48.66355        52.29788        -0.74128
C         50.01746        54.40779        -0.23366
C         48.82866        55.00856         0.31771
C         50.12366        57.08030         0.94906
C         48.82389        56.34515         0.72071
C         50.03420        58.57214         0.70574
C         48.79439        59.24083         0.67734
C         49.98810        61.35143         0.34381
C         48.78699        60.64680         0.52256
C         51.27771        42.36889        -0.22646
C         52.46878        44.49650        -0.50152
C         51.26589        43.75596        -0.47354
C         52.45865        45.88706        -0.68150
C         51.22118        46.58263        -0.89408
C         52.41317        48.72807        -0.93143
C         51.22771        47.99829        -1.08566
C         52.41055        50.19574        -0.98805
C         51.21356        50.87392        -1.14831
C         52.46884        53.07967        -1.09180
C         51.17152        52.35437        -1.26327
C         52.46338        54.50670        -0.71138
C         51.21990        55.12101        -0.30049
C         52.45715        57.18900         0.12500
C         51.29944        56.47632         0.21370
C         52.49868        58.56312         0.66502
C         51.22227        59.30643         0.60913
C         52.54163        61.40386         0.09494
C         51.22551        60.69544         0.37958
C         53.66093        46.64679        -0.61966
C         54.96151        48.72531        -0.50001
C         53.64149        48.02312        -0.69070
C         54.91943        50.21473        -0.70557
C         53.67605        50.91163        -0.85001
C         54.92916        53.03817        -0.77317
C         53.71084        52.31733        -0.87479
C         54.93231        54.46942        -0.71935
C         53.67754        55.17246        -0.63792
C         54.97118        57.30562        -0.15427
C         53.67247        56.67290        -0.59206
C         55.00697        58.64493         0.27141
C         53.77466        59.30684         0.77446
C         55.02521        61.49328         0.69132
C         53.69968        60.82882         0.95191
C         56.11959        50.89992        -0.69408
C         57.38329        53.03573        -0.72672
C         56.16997        52.32481        -0.74004
C         57.40246        54.45024        -0.66249
C         56.15629        55.17116        -0.61835
C         57.41968        57.27431        -0.24333
C         56.17981        56.59499        -0.36959
C         57.43909        58.67524         0.01502
C         56.22228        59.35877         0.29090
C         57.46523        61.48643         0.45426
C         56.21942        60.80048         0.50493
C         58.62609        55.15991        -0.60209
C         59.87833        57.27731        -0.37831
C         58.66188        56.56174        -0.41897
C         59.90466        58.67966        -0.17493
C         58.67759        59.38461         0.03165
C         59.93096        61.48658         0.24596
C         58.68445        60.80195         0.24981
C         61.12430        59.40997        -0.15920
C         61.12230        60.78983         0.04552
O         44.44783        39.43708        -1.43897
O         49.30364        50.82632        -2.63257
O         47.12522        49.36700        -2.43494
O         34.11658        58.95073         1.77013
O         46.38644        55.36437         2.30748
O         45.70365        46.21639         0.99719
O         41.77492        53.09962        -1.29695
O         53.22362        58.61253         1.97323
O         51.90726        52.83005        -2.45601
O         39.91479        50.10359         1.38265
O         49.98594        48.36045        -3.06058
H         49.35202        48.99686        -3.46914
O         33.39322        55.09165         2.28255
H         33.25881        54.15140         2.56758
O         35.79774        56.52352         2.90041
H         34.90071        56.09558         2.88613
O         42.89697        61.31326         3.54156
H         42.84888        60.37038         3.82996
O         48.09079        53.50510         1.93757
H         47.83623        54.15549         2.63558
O         45.07873        41.83077         1.23161
H         45.98111        41.69414         1.59011
O         40.80616        43.52885        -1.91432
H         41.42936        42.95141        -2.41011
O         42.45848        45.78908        -2.30093
H         41.70011        45.20723        -2.55059
O         35.17197        60.55513        -2.02465
H         35.10171        60.71392        -2.98853
O         53.36479        61.13538         2.32764
H         53.24576        60.27049         2.79008
O         53.52296        57.11556        -1.99723
H         52.82840        56.55775        -2.40918
O         33.08311        61.51178         0.79933
H         32.99564        61.10379         1.68685
O         37.39584        58.71085         3.27872
H         36.68265        58.05467         3.48739
O         43.70238        41.93656        -2.18597
H         43.99034        41.00960        -2.37549
O         47.28310        62.02326        -0.76543
H         47.12719        61.30055        -1.40759
O         40.81048        44.33229         1.66170
H         40.17643        44.78783         2.25426
O         46.31108        41.99014        -2.22377
H         47.07555        42.46329        -2.61298
O         40.94226        50.85216        -2.10180
H         41.41328        51.65561        -2.43560
O         34.88167        49.86906         2.48204
H         35.75154        49.69237         2.89792
O         52.88338        61.20776        -1.28167
H         52.13816        61.51457        -1.83702
O         39.53753        48.61560        -1.97229
H         40.15288        49.23445        -2.43575
O         37.90851        52.47061         2.75162
H         38.46679        51.66493         2.80978
O         42.84274        58.35704         3.42988
H         43.61819        57.78340         3.61334
O         36.10612        57.11163        -0.69325
H         35.51481        57.53233        -1.35376
O         34.75581        48.49444        -0.91940
H         35.59054        48.59332        -1.42271
O         33.39401        52.18673         2.28988
H         33.85661        51.43675         2.74211
O         55.96627        48.12730        -1.33617
H         55.69555        48.24926        -2.26928
O         49.51025        53.69972        -2.39802
H         50.27393        53.51732        -2.99757
O         31.20359        59.78943        -0.34665
H         30.83833        59.01309         0.12893
O         50.39869        56.91146         2.38018
H         51.26252        57.34176         2.56543
H         30.54975        56.45080        -2.53888
H         30.01440        58.44277        -3.93573
H         32.60385        61.88532        -3.59975
H         30.66333        60.72388        -4.65522
H         32.07705        52.38874        -0.49816
H         31.20559        54.45531        -1.33390
H         34.00810        62.24319        -1.56327
H         34.25723        47.90047         0.99921
H         33.69808        50.48375        -0.61503
H         35.52248        62.55224         0.60053
H         36.78294        43.73229         0.79673
H         35.51426        45.81466         0.82808
H         37.83365        62.49934         1.33485
H         39.35127        39.56512         1.07618
H         38.03065        41.62347         0.72446
H         40.28645        62.44815         1.67851
H         41.92582        35.36801         1.57932
H         40.63240        37.45042         1.24386
H         42.72070        62.38338         1.77221
H         45.44232        32.15727         2.11346
H         43.24029        33.30568         1.95582
H         45.09414        62.38571         1.17787
H         47.55270        33.39291         1.64392
H         48.71895        35.49905         1.09364
H         47.59803        62.28504         1.24966
H         49.88248        37.61652         0.66938
H         51.06121        39.73770         0.27675
H         49.94886        62.44036         0.19064
H         52.23938        41.85555        -0.07963
H         53.42557        43.97757        -0.34297
H         52.43136        62.50414         0.30768
H         54.61932        46.12794        -0.47308
H         55.29752        48.53982         0.55949
H         55.06257        62.58674         0.81573
H         57.05809        50.33124        -0.62023
H         58.33488        52.48391        -0.72713
H         57.47912        62.57712         0.59915
H         59.57186        54.60298        -0.67838
H         60.82625        56.73645        -0.51777
H         59.94745        62.57388         0.40735
H         62.07289        58.87613        -0.31328
H         62.07577        61.33698         0.05016
