         632
 CSIRO Nanostructure Databank - Neutral Graphene Oxide Data Set
C         23.13439        69.85865         1.48025
C         23.11424        71.29989         1.51700
C         21.93289        72.00615         1.75102
C         23.10768        74.13450         1.68783
C         21.93644        73.41641         1.82693
C         25.59956        65.60226         1.03144
C         25.53718        67.03709         1.01797
C         24.34091        67.72077         1.20800
C         25.52458        69.88989         0.76435
C         24.28798        69.15108         1.21814
C         25.55540        71.34678         1.13564
C         24.34772        72.03023         1.36351
C         25.55475        74.17045         1.29267
C         24.34860        73.46370         1.46134
C         28.11967        61.33851         0.74366
C         28.07690        62.74195         0.71235
C         26.77099        63.41273         1.05941
C         28.03814        65.61980         0.74996
C         26.78674        64.91602         0.93510
C         28.04218        67.03765         0.81094
C         26.79753        67.77171         0.96823
C         28.07785        69.88312         1.32537
C         26.79824        69.14437         1.05371
C         28.02351        71.35495         0.97942
C         26.77343        72.05293         1.05912
C         28.01203        74.18434         0.95671
C         26.77530        73.49103         1.10160
C         30.42604        57.11622        -0.13951
C         30.49033        58.44933         0.10330
C         29.32116        59.15214         0.75183
C         30.49351        61.35132         0.19482
C         29.30411        60.64238         0.51638
C         30.46577        62.77807         0.15373
C         29.25011        63.47288         0.44049
C         30.44384        65.63392         0.18535
C         29.24240        64.91754         0.47325
C         30.43444        67.06022         0.21965
C         29.24238        67.75344         0.57778
C         30.44369        69.88371         0.52408
C         29.27675        69.18090         0.73362
C         30.51738        71.31879         0.97385
C         29.20698        72.05437         0.85112
C         30.47738        74.17846         0.67471
C         29.21502        73.49256         0.81413
C         32.79579        52.77789        -0.22802
C         32.78330        54.19750        -0.40466
C         31.60017        54.91006        -0.49054
C         32.87890        57.07469        -0.52864
C         31.56494        56.38001        -0.80042
C         32.89827        58.51464        -0.41874
C         31.71320        59.21240        -0.14888
C         32.91245        61.37732        -0.32113
C         31.71493        60.64528        -0.07862
C         32.87330        62.80053        -0.32549
C         31.66813        63.50431        -0.12286
C         32.81039        65.69828        -0.51198
C         31.65824        64.95035        -0.12844
C         32.76252        67.11009        -0.56807
C         31.60070        67.79260        -0.15113
C         32.75992        69.96863        -0.29519
C         31.60767        69.23155        -0.01228
C         32.82486        71.37270        -0.01580
C         31.69475        72.07424         0.42326
C         32.91694        74.28544         0.12504
C         31.66644        73.50375         0.46851
C         35.35467        48.49299         0.47493
C         35.33307        49.99471         0.49715
C         34.04200        50.67040         0.10360
C         35.26347        52.76681        -0.46423
C         33.99875        52.03148        -0.17487
C         35.26435        54.24352        -0.37101
C         34.05904        54.92057        -0.43943
C         35.35510        57.09135        -0.25476
C         34.05383        56.36265        -0.47678
C         35.34696        58.52260        -0.69920
C         34.14902        59.22639        -0.57176
C         35.35973        61.33543        -0.80332
C         34.14614        60.66654        -0.57870
C         35.40147        62.80166        -0.68767
C         34.12601        63.57053        -0.45022
C         35.16652        65.66747        -1.31073
C         34.06188        65.01250        -0.81613
C         35.14121        67.14154        -1.57169
C         33.78046        67.85831        -1.41030
C         35.24007        69.79041        -0.42682
C         33.91221        69.40038        -1.10542
C         35.29979        71.28624        -0.13913
C         34.11605        72.04503        -0.06987
C         35.39794        74.05300         0.39808
C         34.17475        73.45080         0.17231
C         37.77048        44.27318         1.16490
C         37.75848        45.68913         0.94684
C         36.57062        46.38179         0.77279
C         37.83218        48.51176         0.59308
C         36.54985        47.80958         0.60610
C         37.85733        49.87001         0.02019
C         36.55089        50.55152        -0.22202
C         37.83386        52.75365        -0.25722
C         36.55351        52.02292        -0.50532
C         37.80511        54.23429        -0.39070
C         36.51735        54.95194        -0.55838
C         37.73044        56.96791        -1.36351
C         36.54608        56.30898        -0.71203
C         37.76400        58.47287        -1.24563
C         36.59051        59.18467        -1.01268
C         37.76656        61.35254        -1.35713
C         36.57087        60.63910        -1.09458
C         37.73962        62.79686        -1.46476
C         36.55148        63.49953        -1.26384
C         37.72345        65.66562        -1.84988
C         36.42050        64.92147        -1.60812
C         37.81140        67.18971        -1.85227
C         36.45051        67.90842        -1.65986
C         37.67697        69.77280        -0.38405
C         36.48485        69.41203        -1.26429
C         37.77540        71.10564         0.11792
C         36.55681        71.89621         0.09834
C         37.83723        73.91255         0.68610
C         36.60036        73.29232         0.40234
C         40.23352        40.02564         1.32070
C         40.22336        41.43085         1.34922
C         39.01050        42.15429         1.38708
C         40.23801        44.28371         0.88084
C         38.96297        43.55550         1.23088
C         40.20257        45.75051         1.19408
C         39.02130        46.42524         1.04145
C         40.29843        48.58609         0.84715
C         39.02351        47.87333         0.88301
C         40.31172        50.00369         0.48962
C         39.11968        50.64230         0.07304
C         40.31155        52.78125        -0.08572
C         39.12999        52.01903        -0.21225
C         40.35388        54.16525        -0.71059
C         39.05797        54.96584        -0.67000
C         40.33703        56.95931        -1.40848
C         39.03813        56.27447        -1.02754
C         40.29552        58.47748        -1.38351
C         38.99406        59.15411        -1.80832
C         40.20038        61.35643        -1.63753
C         39.00716        60.65496        -1.56265
C         40.21595        62.79950        -1.60609
C         38.98413        63.51605        -1.63113
C         40.19922        65.64754        -1.48482
C         38.98631        64.93013        -1.63057
C         40.17079        67.04007        -1.04134
C         38.89621        67.64326        -0.91247
C         40.43994        69.71295         0.31236
C         38.65736        68.80155        -0.14875
C         40.29767        71.11960         0.35714
C         39.02011        71.75391         0.45403
C         40.26698        73.88001         0.87724
C         39.03555        73.18577         0.68274
C         42.63472        35.77362         0.90785
C         42.64964        37.15365         0.88529
C         41.43995        37.89875         1.11601
C         42.75541        39.98044         1.44977
C         41.43475        39.28034         1.23786
C         42.71287        41.46016         1.19901
C         41.49524        42.15569         1.28577
C         42.70894        44.27177         1.33371
C         41.49489        43.56840         1.28448
C         42.72859        45.74081         1.59852
C         41.40278        46.50806         1.69419
C         42.75308        48.62171         1.13382
C         41.48660        47.92856         1.15665
C         42.72263        50.13603         1.25709
C         41.47108        50.78546         0.69819
C         42.54297        53.05453         1.11176
C         41.46948        52.17764         0.45248
C         42.52301        54.49568         0.57486
C         41.49256        55.02217        -0.23029
C         42.63871        57.17670        -0.43193
C         41.49360        56.38166        -0.62167
C         42.70689        58.56583        -0.89572
C         41.46179        59.18599        -1.34469
C         42.70563        61.39878        -1.39470
C         41.50498        60.61354        -1.85729
C         42.76279        62.84554        -1.81642
C         41.42816        63.53765        -1.64481
C         42.69748        65.68160        -1.88104
C         41.41825        64.93447        -1.57868
C         42.61362        67.16909        -1.52786
C         41.41340        67.73422        -0.84680
C         42.73513        69.84228        -0.43634
C         41.51915        69.04943        -0.32593
C         42.72530        71.23824        -0.04236
C         41.52283        71.87578         0.28769
C         42.74836        73.94843         0.82790
C         41.50727        73.27142         0.65971
C         45.14075        32.92538         0.65944
C         43.94182        33.57636         0.85054
C         45.07754        35.74287         0.10196
C         43.78177        34.97399         0.46563
C         45.09157        37.20193         0.30103
C         43.89042        37.89527         0.62699
C         45.11306        40.02143         0.52731
C         43.92334        39.28780         0.79303
C         45.11912        41.45745         0.53543
C         43.90245        42.16862         0.91346
C         45.07414        44.35026         0.57068
C         43.90385        43.57429         1.04698
C         45.31957        45.69784         1.21559
C         44.02030        46.49045         1.44357
C         45.24073        48.64398         1.00003
C         43.97642        47.95639         1.17069
C         45.26504        50.10216         0.95178
C         43.95722        50.83765         0.65754
C         45.30813        52.94835         1.29312
C         43.94015        52.30126         1.15876
C         45.46290        54.40259         1.30314
C         43.52237        55.41356         0.93660
C         45.10062        57.20225        -0.05201
C         43.72703        56.63210         0.28007
C         45.05375        58.74422         0.04930
C         43.86076        59.30377        -0.72560
C         45.08050        61.45821        -0.80578
C         43.87212        60.73997        -0.99739
C         45.07322        62.91045        -0.70192
C         43.89659        63.64168        -1.18156
C         45.18154        65.76013        -1.18706
C         43.93103        65.00729        -1.29563
C         45.20345        67.16545        -1.40396
C         43.91713        67.90787        -1.42523
C         45.12618        70.05273        -1.03066
C         43.91537        69.25149        -0.83274
C         45.16214        71.39515        -0.43084
C         43.96949        71.96743         0.01005
C         45.21919        73.94374         0.79178
C         43.96741        73.31367         0.55679
C         46.32541        33.60758         0.29368
C         47.55060        35.74111         0.07125
C         46.35357        35.00557         0.15648
C         47.55622        37.15848         0.03930
C         46.30988        37.89367         0.19789
C         47.53322        40.04737         0.03028
C         46.32151        39.32132         0.23745
C         47.51301        41.45849        -0.04501
C         46.27602        42.14934         0.13873
C         47.52622        44.38215        -0.36826
C         46.24422        43.62312        -0.01534
C         47.55790        45.81808         0.13471
C         46.44776        46.48118         0.59079
C         47.71010        48.59652         0.75210
C         46.43015        47.92345         0.78395
C         47.77780        50.04206         1.19614
C         46.47153        50.77056         0.97923
C         47.69034        52.91383         0.62670
C         46.53093        52.21073         0.92338
C         47.69377        54.36343         0.41513
C         46.45711        55.09571         0.68650
C         47.55724        57.21435        -0.10643
C         46.37729        56.62041         0.65185
C         47.57030        58.69281        -0.27110
C         46.38163        59.36111        -0.34849
C         47.64287        61.50864        -0.74178
C         46.37241        60.72894        -0.97380
C         47.67553        62.89355        -0.79107
C         46.42292        63.66759        -0.66056
C         47.66333        65.77502        -1.14304
C         46.41524        65.08775        -1.01746
C         47.66128        67.20177        -1.28657
C         46.42638        67.87798        -1.39118
C         47.68806        70.18407        -1.40559
C         46.39182        69.36690        -1.46688
C         47.62840        71.33948        -0.41350
C         46.44249        71.99345        -0.13110
C         47.67126        73.94297         0.78270
C         46.43497        73.29960         0.53109
C         48.75374        37.87471        -0.06609
C         49.97432        39.97955        -0.25239
C         48.77865        39.30003        -0.09713
C         49.99939        41.43180        -0.40058
C         48.75307        42.21140        -0.20388
C         50.05410        44.33313        -0.03077
C         48.79962        43.59134        -0.14306
C         50.06991        45.70479         0.13065
C         48.84388        46.55829        -0.16826
C         50.17699        48.60516         0.78184
C         48.86539        47.91787         0.48294
C         50.12644        50.04561         0.35253
C         48.94747        50.74554         0.52749
C         50.05294        52.85276        -0.05583
C         48.91548        52.17746         0.34215
C         50.17260        54.32405         0.22756
C         48.85771        55.02943         0.09924
C         50.09550        57.20145        -0.48710
C         48.82944        56.44935        -0.30945
C         50.07302        58.58545        -0.64955
C         48.83251        59.35139        -0.60097
C         50.12338        61.42200        -1.17757
C         48.85006        60.73220        -0.78014
C         50.13752        62.91321        -1.00191
C         48.91940        63.62984        -0.96097
C         50.13867        65.74723        -1.56404
C         48.88906        65.04419        -1.10009
C         50.17312        67.21919        -1.24055
C         48.92050        67.95657        -1.25630
C         50.21896        70.11721        -1.29644
C         48.92897        69.33807        -1.24040
C         50.18279        71.38230        -0.45523
C         48.90605        71.81956         0.23157
C         50.11272        73.96520         0.73268
C         48.89527        73.30109         0.54942
C         51.31205        42.15177        -0.33469
C         52.53243        44.25125        -0.04952
C         51.32386        43.60154        -0.04485
C         52.60474        45.68210         0.03811
C         51.36794        46.37986         0.53849
C         52.53435        48.53597        -0.06043
C         51.38805        47.86376         0.29069
C         52.52642        49.98278        -0.24625
C         51.31356        50.67443        -0.13101
C         52.54283        52.84995        -0.69413
C         51.23832        52.09817        -0.47037
C         52.55616        54.32256        -0.55520
C         51.35317        55.03377        -0.38847
C         52.57422        57.11799        -0.66541
C         51.34098        56.44844        -0.50353
C         52.63119        58.60319        -0.90363
C         51.32751        59.33169        -0.68445
C         52.56948        61.48436        -0.25603
C         51.34798        60.69845        -0.68659
C         52.59081        62.89197        -0.79040
C         51.41067        63.57859        -1.06399
C         52.61901        65.71522        -1.25765
C         51.42661        65.03028        -1.23847
C         52.65825        67.15524        -1.14998
C         51.40105        67.87531        -1.11975
C         52.63918        69.97045        -0.77175
C         51.45128        69.30721        -0.98421
C         52.65209        71.48929        -0.78694
C         51.35041        72.04225        -0.22647
C         52.56136        74.01407         0.65161
C         51.35731        73.35422         0.42068
C         53.76007        46.37782        -0.21988
C         54.96939        48.51948        -0.43155
C         53.79246        47.81978        -0.25471
C         55.00681        49.95946        -0.47598
C         53.76188        50.68763        -0.46287
C         55.02342        52.80891        -0.58062
C         53.79398        52.09682        -0.55821
C         55.04247        54.23807        -0.67366
C         53.79491        54.99330        -0.66432
C         55.04794        57.14811        -0.69585
C         53.78797        56.41093        -0.68182
C         55.07720        58.48980        -0.46451
C         53.80216        59.24799        -0.15878
C         55.07094        61.41188        -0.59339
C         53.87361        60.73625        -0.44776
C         55.13154        62.83558        -0.72786
C         53.87179        63.66156        -0.55494
C         55.14412        65.72320        -1.19673
C         53.89458        64.92112        -1.42991
C         55.13305        67.07308        -0.99978
C         53.87837        67.82613        -0.96730
C         55.08396        69.96192        -0.52643
C         53.88851        69.25143        -0.72524
C         55.08899        71.35930        -0.17069
C         53.88164        72.06718        -0.12715
C         55.01061        74.00898         0.85345
C         53.82814        73.38436         0.43214
C         56.21490        50.65473        -0.54000
C         57.48095        52.78834        -0.61852
C         56.25956        52.07987        -0.57584
C         57.51442        54.19606        -0.69792
C         56.27162        54.90933        -0.76237
C         57.61490        57.08506        -0.83443
C         56.29002        56.37189        -0.94963
C         57.62669        58.51113        -0.47257
C         56.34589        59.23342        -0.15576
C         57.58537        61.43290        -0.25472
C         56.37001        60.63764        -0.77733
C         57.59321        62.80733        -0.88756
C         56.38304        63.49568        -0.93258
C         57.71812        65.69155        -1.27133
C         56.40886        64.94658        -1.28670
C         57.72032        67.22161        -1.25363
C         56.42204        67.76310        -0.59213
C         57.65606        69.98926        -0.37239
C         56.37003        69.27549        -0.72123
C         57.55208        71.32541         0.24335
C         56.31838        71.99488         0.26622
C         57.43957        73.98221         1.20221
C         56.26110        73.34748         0.77228
C         58.76398        54.90399        -0.63660
C         60.05547        57.01936        -0.43909
C         58.84692        56.29597        -0.61181
C         60.08681        58.42922        -0.42122
C         58.83195        59.18148        -0.39719
C         60.08399        61.27313        -0.46062
C         58.87251        60.63195        -0.39098
C         60.15656        62.71994        -0.77089
C         58.88981        63.49338        -1.06259
C         60.09422        65.60588        -0.49182
C         58.94230        64.95827        -0.90441
C         60.07394        67.04476        -0.25156
C         58.91443        67.81503        -0.50881
C         59.98536        69.78426         0.50361
C         58.87039        69.16970        -0.12978
C         59.93338        71.18576         0.90244
C         58.72868        71.92125         0.78908
C         59.84842        73.92832         1.68821
C         58.67534        73.29729         1.23174
C         61.30512        59.14178        -0.31461
C         62.52866        61.28995        -0.14603
C         61.33559        60.54983        -0.32434
C         62.54079        62.70362        -0.05161
C         61.34349        63.46222        -0.32825
C         62.48592        65.54828         0.24778
C         61.30702        64.85169        -0.20254
C         62.43605        66.91419         0.53543
C         61.21225        67.66646         0.33723
C         62.28292        69.60846         1.52679
C         61.15526        69.02720         0.71362
C         62.32153        71.11446         1.54144
C         61.11212        71.82803         1.40002
C         62.23648        73.85440         2.25992
C         61.07211        73.22985         1.76291
C         63.72425        63.41021         0.26090
C         64.90925        65.50503         0.75095
C         63.72203        64.80768         0.41573
C         64.91129        66.88806         0.98062
C         63.64495        67.61864         0.92136
C         64.87643        69.75477         1.29688
C         63.60464        68.95450         1.24583
C         64.74719        71.07387         2.01217
C         63.50447        71.76672         1.96432
C         64.62450        73.76979         2.87448
C         63.45408        73.15541         2.36419
C         66.07631        67.55852         1.42675
C         67.18274        69.58718         2.26365
C         66.07554        68.93552         1.71793
C         67.13544        70.96107         2.64124
C         65.88703        71.68797         2.53857
C         67.00487        73.65950         3.52573
C         65.82352        73.05443         2.99891
C         68.25904        71.60736         3.17911
C         68.18789        72.94615         3.60831
O         35.05542        63.31467         0.67199
O         59.73952        62.98917        -2.16595
O         51.71466        52.41687        -1.83312
O         45.51170        69.92621        -2.49342
O         57.14648        65.18718        -2.54484
O         56.99836        56.81710        -2.15749
O         44.58389        52.39665         2.44847
O         57.16917        69.91178        -1.75775
O         39.47826        68.95578         0.99050
O         43.52497        46.12143         2.79158
O         44.43796        55.09310         1.95196
O         44.16898        35.27381        -0.92843
O         35.67961        67.60539        -2.86762
O         36.94621        65.17409        -2.97773
O         37.77401        53.59606         0.95639
O         37.14342        49.80601        -1.30508
O         45.16969        44.18295        -0.88253
O         45.65936        63.39147         0.56466
O         35.89107        52.35186        -1.76194
O         43.10501        67.94952        -2.67802
O         41.68271        60.46887        -3.30560
H         42.08792        61.30888        -3.63986
O         37.52669        56.70946        -2.82014
H         37.61676        55.74264        -2.96963
O         28.27673        69.84512         2.78259
H         29.16250        70.25663         2.94943
O         30.76338        71.22997         2.44587
H         30.80831        72.15222         2.78034
O         53.53989        59.11800         1.27787
H         54.39965        59.30942         1.72602
O         65.13818        70.12593        -0.11304
H         65.31465        69.29447        -0.60362
O         42.74236        50.39573         2.69346
H         42.04638        49.84294         3.10833
O         31.33428        56.48920        -2.25641
H         31.39034        57.44129        -2.48521
O         43.02230        39.86237         2.90020
H         42.96885        38.90899         3.12592
O         45.87382        45.34706         2.51952
H         45.14136        45.43160         3.17723
O         53.83108        64.08320         0.84062
H         53.46354        63.32253         1.35381
O         42.11767        53.15763         2.48504
H         42.38059        52.31926         2.93696
O         43.05166        62.83784        -3.25932
H         43.00926        63.78370        -3.56484
O         56.55151        60.42357        -2.18845
H         56.58828        61.29508        -2.63608
O         52.73576        71.90063        -2.18400
H         51.94896        71.50021        -2.64022
O         35.51533        57.16297         1.22074
H         34.74126        57.65307         1.57249
O         41.10802        46.68276         3.12105
H         41.97931        46.76214         3.57744
O         48.91111        46.81746        -1.61071
H         48.56391        45.99846        -2.05198
O         52.42775        61.63117         1.21654
H         52.60048        60.72667         1.58736
O         47.50597        44.52742        -1.83651
H         46.55712        44.64035        -2.08610
O         40.57503        56.62534        -2.82649
H         40.16882        57.35041        -3.36217
O         50.05581        65.68086        -3.04774
H         50.80275        66.20763        -3.40518
O         45.27089        56.85158        -1.44188
H         44.60081        57.32862        -1.97603
O         50.76444        41.83372        -1.63382
O         42.84069        65.56465        -3.33047
H         43.10080        66.46698        -3.65359
O         35.34221        69.04457         0.80925
H         34.69112        69.40913         1.44534
O         44.80541        59.13486         1.42468
H         45.50893        58.70781         1.97340
O         50.30538        48.62793         2.25867
H         50.52872        47.69657         2.52461
O         28.07892        58.55366         0.37367
H         27.97525        58.64328        -0.59545
O         32.77415        74.83631        -1.20207
H         32.73805        74.08996        -1.83536
O         25.44522        69.89488        -0.71893
H         25.27761        68.96952        -0.99990
O         48.02646        50.08794         2.62908
H         48.86442        49.57969         2.78701
O         47.84017        56.61935        -1.40924
O         50.51022        54.37087         1.68027
H         49.76009        53.96571         2.16818
O         40.58167        53.88920        -2.12959
H         40.68964        54.75950        -2.59003
O         38.92306        58.98231        -3.27303
H         38.24116        58.29153        -3.46018
O         40.30570        44.23020        -0.60201
H         39.45520        44.58204        -0.94374
O         38.26455        67.55943        -3.17331
H         37.55915        67.27130        -3.79532
O         47.81525        70.86014        -2.70709
H         46.89925        70.87499        -3.08936
O         36.55417        70.21194        -2.44456
H         35.65493        70.21049        -2.85439
O         51.42210        46.19969         2.02750
H         52.34913        46.37428         2.30062
O         50.41767        70.53485        -2.69755
H         49.53498        70.84249        -3.03098
O         33.87733        70.09791        -2.37471
H         33.26408        69.56944        -2.94526
O         46.40634        60.45606        -2.43828
H         47.27266        60.03491        -2.63601
O         48.93718        71.13578         1.54601
H         49.66882        71.53791         2.06186
O         57.80825        67.65989        -2.61452
H         57.50526        66.91652        -3.18538
O         50.17745        61.25424        -2.65802
H         50.95459        61.75957        -2.98253
O         52.93069        58.78775        -2.31780
H         52.21349        58.37193        -2.84064
O         56.57621        67.47415         0.83238
H         55.69213        67.50318         1.25526
O         56.30449        59.36727         1.32893
H         56.62385        58.52039         1.70836
O         53.92916        64.44046        -2.80452
H         54.19329        65.18370        -3.38583
O         57.44147        61.72821         1.16519
H         57.15060        60.89834         1.61486
O         35.55749        50.40124         1.90410
H         34.80815        50.06056         2.43707
O         61.97361        69.24033         2.93211
H         61.08612        69.60506         3.13735
O         43.77544        50.82877        -0.77599
H         44.62413        51.05444        -1.20995
O         46.43929        57.09732         2.01705
H         45.78201        56.57262         2.53134
O         25.70174        62.84989         0.28029
H         25.87345        63.05078        -0.66230
O         33.14906        67.76092        -2.72879
H         33.86191        67.56637        -3.38071
H         23.09729        75.23222         1.75163
H         25.54557        75.27055         1.31607
H         28.01609        75.28442         0.97829
H         30.47378        75.27850         0.65632
H         33.01712        75.16094         0.81709
H         35.45039        75.13372         0.59709
H         37.86294        74.99552         0.87761
H         40.22766        74.94929         1.13448
H         42.74695        74.98579         1.19435
H         45.23237        74.95716         1.22060
H         47.66934        74.98653         1.13321
H         50.10878        75.00518         1.09390
H         52.54585        75.01773         1.10274
H         54.96625        75.02111         1.28240
H         57.39550        75.02608         1.54652
H         59.80739        74.98115         2.00446
H         62.18521        74.90421         2.58505
H         64.58844        74.82740         3.17602
H         66.96297        74.70475         3.86459
H         22.19792        69.31746         1.68838
H         20.98802        71.45827         1.87862
H         20.98904        73.94493         2.00453
H         24.66274        65.03486         1.13769
H         23.41762        67.15313         1.40092
H         27.20470        60.77679         0.98066
H         26.53267        63.15737         2.13091
H         29.48685        56.57816         0.06263
H         29.41276        58.99886         1.86626
H         31.83596        52.25447        -0.10064
H         30.64030        54.37222        -0.45266
H         34.40498        47.93623         0.49024
H         33.09746        50.13407         0.29046
H         36.80979        43.74797         1.27880
H         35.61582        45.83492         0.76752
H         39.27431        39.48554         1.29470
H         38.06542        41.59909         1.49295
H         41.72026        35.24799         1.22325
H         40.48531        37.35050         1.11455
H         45.21052        31.85356         0.89539
H         43.09690        33.05752         1.32629
H         47.27133        33.04872         0.25178
H         48.51052        35.20430         0.03384
H         49.70471        37.32914        -0.15735
H         50.91470        39.42455        -0.38147
H         52.23297        41.57969        -0.07859
H         53.45650        43.68157        -0.23311
H         54.68312        45.82692        -0.45924
H         55.91806        47.96851        -0.52328
H         57.16135        50.09346        -0.55845
H         58.42775        52.22876        -0.58604
H         59.68759        54.31225        -0.54628
H         61.00061        56.46361        -0.34340
H         62.24885        58.58179        -0.23450
H         63.47396        60.74524        -0.00235
H         64.66143        62.85328         0.40936
H         65.84700        64.93954         0.85933
H         66.98518        66.96887         1.62283
H         68.10778        69.01870         2.44783
H         69.20728        71.05752         3.26708
H         69.08740        73.42671         4.01852
