         661
 CSIRO Nanostructure Databank - Neutral Graphene Oxide Data Set
C          5.89399        31.66026         0.34521
C          5.88146        33.01327         0.51580
C          8.36661        27.46079        -0.22450
C          8.30913        28.83568        -0.38022
C          7.11855        29.56476        -0.09853
C          8.31412        31.71873        -0.14496
C          7.10832        30.96040         0.00259
C          8.32841        33.08527         0.12992
C          7.09681        33.78204         0.42692
C          8.32281        35.90453         0.54635
C          7.10150        35.16207         0.57443
C          8.33094        37.29315         0.69568
C         10.88466        23.12674        -0.08884
C         10.78939        24.51167        -0.66636
C          9.56460        25.30945        -0.30193
C         10.82932        27.40119        -0.60634
C          9.57501        26.68669        -0.39384
C         10.81370        28.85641        -0.84436
C          9.51004        29.58888        -0.84037
C         10.84000        31.72135        -0.30464
C          9.53074        31.11963        -0.80934
C         10.82531        33.08169         0.03704
C          9.57742        33.80763         0.15451
C         10.80532        35.90781         0.57576
C          9.57122        35.18796         0.40400
C         10.78889        37.28469         0.79124
C          9.55262        38.02224         0.80133
C         10.76023        40.19139         1.06361
C          9.55711        39.42213         0.92576
C         10.74562        41.58241         0.94931
C         13.18713        18.78002         0.58692
C         12.87354        20.03403         0.02138
C         11.97454        21.01805         0.38481
C         13.32999        23.02841        -0.46510
C         12.05094        22.38133        -0.12557
C         13.33334        24.51253        -0.42619
C         12.06137        25.28315        -0.39319
C         13.27223        27.47036        -0.80625
C         12.04146        26.74397        -0.66221
C         13.28895        28.86612        -0.73353
C         12.07597        29.60344        -0.66679
C         13.33316        31.66167        -0.10013
C         12.07533        30.99459        -0.38973
C         13.29916        33.06571         0.25830
C         12.06094        33.78124         0.29019
C         13.29056        35.86687         0.70197
C         12.05461        35.16978         0.55696
C         13.30937        37.28912         0.84325
C         12.03553        37.98003         1.26201
C         13.22387        40.16050         1.07722
C         12.02936        39.48240         1.10232
C         13.25601        41.58669         1.42475
C         11.92921        42.36460         1.29061
C         13.23124        44.49463         0.91075
C         12.02348        43.80937         1.02621
C         13.24025        45.90253         0.64486
C         15.71558        14.64938         0.69163
C         15.67653        16.04523         0.71755
C         14.48198        16.77725         0.58790
C         15.76006        18.90596         0.32794
C         14.46937        18.17546         0.43060
C         15.83243        20.33725         0.02548
C         14.75149        21.01147        -0.51874
C         15.84824        23.18101        -0.46589
C         14.59463        22.43362        -0.48417
C         15.85184        24.52770        -0.72211
C         14.55418        25.21336        -0.92163
C         15.81832        27.39783        -0.86425
C         14.51029        26.70582        -1.09898
C         15.80859        28.84638        -0.55107
C         14.57250        29.63815        -0.91753
C         15.83123        31.61970         0.02012
C         14.57071        31.00247        -0.26750
C         15.75106        32.93627         0.76894
C         14.50787        33.74205         0.49984
C         15.76252        35.87451         0.70226
C         14.51955        35.14947         0.65292
C         15.74844        37.29459         0.61364
C         14.50223        37.99232         0.71600
C         15.72126        40.21486         0.69961
C         14.42907        39.48373         0.47047
C         15.73683        41.55464         0.89991
C         14.57869        42.34882         1.47368
C         15.68199        44.48881         0.74924
C         14.51435        43.79479         0.96739
C         15.70082        45.91913         0.47321
C         14.42453        46.63292         0.44057
C         15.64488        48.77628         0.09683
C         14.43599        48.04031         0.30624
C         15.68460        50.14934         0.13206
C         18.17057        10.40751        -0.11200
C         18.15704        11.80754         0.11896
C         16.94866        12.54041         0.30151
C         18.17779        14.64919         0.65707
C         16.94773        13.93322         0.59947
C         18.23402        16.02071         1.10945
C         16.87434        16.82985         1.05725
C         18.18345        19.03546         1.15048
C         16.91712        18.26768         0.76093
C         18.24561        20.46399         0.60690
C         17.05679        21.10711         0.19759
C         18.33237        23.18297        -0.24025
C         17.10441        22.47990        -0.19961
C         18.45488        24.50038        -1.00698
C         17.10741        25.20923        -1.11170
C         18.36988        27.46283        -1.49784
C         17.06884        26.68892        -1.30517
C         18.16877        28.93046        -1.15516
C         17.08893        29.59607        -0.64095
C         18.31261        31.64570         0.31665
C         17.08556        30.98571        -0.17028
C         18.21408        33.03210         0.71401
C         17.01576        33.73754         0.69275
C         18.23846        35.89801         0.67568
C         16.99571        35.16323         0.73364
C         18.20381        37.32007         0.41905
C         16.99041        38.00151         0.40546
C         18.23539        40.22382         0.13686
C         16.94367        39.47961         0.24738
C         18.30004        41.61956         0.64755
C         17.01517        42.31119         0.92766
C         18.23609        44.48587         0.75469
C         16.95901        43.74193         0.44393
C         18.18668        45.97556         0.56579
C         16.88443        46.60452         0.28534
C         18.18454        48.75292        -0.16386
C         16.87783        47.99362        -0.30616
C         18.19625        50.13227        -0.21516
C         16.95752        50.95084         0.08688
C         18.16694        52.98840        -0.75854
C         16.87774        52.19091        -0.82667
C         18.16752        54.34888        -0.95163
C         20.59315         6.23250        -1.31381
C         20.56548         7.60324        -0.94965
C         19.39079         8.32687        -0.75548
C         20.60555        10.42665        -0.20004
C         19.37886         9.71465        -0.34420
C         20.60125        11.82119         0.00875
C         19.39583        12.52117         0.12456
C         20.67084        14.72973         0.20090
C         19.36005        14.02345        -0.03120
C         20.69490        16.09095         0.48326
C         19.54845        16.78859         1.16371
C         20.65590        18.95408         0.74663
C         19.47070        18.27567         0.83426
C         20.65667        20.42591         1.14320
C         19.45407        21.18200         0.61718
C         20.75673        23.33740         0.21815
C         19.52059        22.55459         0.20622
C         20.83823        24.68668        -0.17438
C         19.62552        25.43035        -0.58633
C         20.92935        27.63521        -0.86004
C         19.61578        26.78910        -0.81559
C         20.91612        28.94552        -0.02624
C         19.96206        29.87775        -0.33378
C         20.69658        31.59227         1.24771
C         19.58065        31.02861         0.43614
C         20.67128        33.07020         1.49423
C         19.41142        33.78686         1.13879
C         20.78515        35.84685         0.58498
C         19.44300        35.23301         0.88723
C         20.77532        37.34485         0.52770
C         19.50510        37.99275         0.16100
C         20.79223        40.21883         0.26411
C         19.53289        39.49353         0.00870
C         20.76999        41.67552         0.25301
C         19.53101        42.39614         0.36477
C         20.72313        44.54404         0.45294
C         19.51258        43.77682         0.49244
C         20.67199        45.94764         0.37599
C         19.43801        46.67182         0.21070
C         20.70154        48.68074        -0.59207
C         19.42262        48.00775        -0.15281
C         20.67183        50.17919        -0.43201
C         19.44007        50.87020        -0.37849
C         20.64110        52.98111        -0.77210
C         19.41563        52.28043        -0.59755
C         20.64146        54.40095        -1.04475
C         19.38949        55.10648        -1.05775
C         20.59926        57.23015        -1.33878
C         19.38837        56.49600        -1.21270
C         20.60648        58.63875        -1.40616
C         23.03658         3.45001        -2.02896
C         21.81718         4.11777        -1.74671
C         23.08050         6.15927        -1.15454
C         21.79013         5.47997        -1.41974
C         23.06274         7.65437        -1.35059
C         21.88328         8.24836        -0.55228
C         23.16833        10.36296        -0.16587
C         21.87091         9.77940        -0.70407
C         23.19399        11.84161         0.06520
C         21.88229        12.56080         0.15503
C         23.12693        14.69719        -0.02412
C         21.89231        14.02647         0.02351
C         23.11494        16.12860         0.06081
C         21.91647        16.81298         0.40554
C         23.15004        18.90626         0.54756
C         21.92191        18.23574         0.57404
C         23.15693        20.39839         0.32733
C         21.97066        21.16016         0.91744
C         23.31691        23.25171         0.32061
C         21.99904        22.62210         0.58252
C         23.31490        24.66256         0.10697
C         22.12908        25.35911        -0.19741
C         23.46903        27.56549        -0.19216
C         22.20033        26.80296        -0.55663
C         23.39026        28.96681         0.27701
C         22.06161        29.35798         0.89350
C         23.26206        31.68365         1.33103
C         22.00283        30.85136         1.32057
C         23.24535        33.06847         1.51133
C         21.97886        33.81507         1.63563
C         23.24183        36.04755         1.21084
C         21.97041        35.30079         1.36512
C         23.23463        37.36490         0.83577
C         21.96230        38.05137         0.54873
C         23.26239        40.20317         0.50084
C         21.96404        39.49758         0.42952
C         23.24921        41.68229         0.26144
C         21.95779        42.39746         0.19335
C         23.20144        44.50454         0.28687
C         21.97979        43.82915         0.31977
C         23.25744        45.93101         0.53007
C         21.89901        46.72506         0.51439
C         23.17034        48.74403        -0.13194
C         21.96486        48.09499         0.01622
C         23.18705        50.11794        -0.77068
C         21.88846        50.87682        -0.53158
C         23.14238        52.94626        -0.96333
C         21.86341        52.27154        -0.67551
C         23.12092        54.39025        -1.34219
C         21.83863        55.10542        -1.27708
C         23.08226        57.23324        -1.52871
C         21.85287        56.52195        -1.38728
C         23.06383        58.65197        -1.60829
C         21.81169        59.35539        -1.52064
C         23.00094        61.47823        -1.62526
C         21.81595        60.78413        -1.53836
C         24.26226         4.07817        -2.01416
C         25.55882         6.28966        -1.80449
C         24.40206         5.44541        -1.52538
C         25.58864         7.65709        -1.43603
C         24.39238         8.31303        -1.07187
C         25.66503        10.49245        -0.73505
C         24.44679         9.67808        -0.53842
C         25.65019        11.87144        -0.55749
C         24.42988        12.59873        -0.22635
C         25.68043        14.76275        -0.14447
C         24.38412        13.97913        -0.16341
C         25.48695        16.16622        -0.73255
C         24.32924        16.85476        -0.04620
C         25.72431        18.77383         0.62897
C         24.36296        18.19731         0.30473
C         25.72221        20.28397         0.79462
C         24.44413        21.06959         0.76155
C         25.78320        23.13946         0.72261
C         24.50619        22.52645         0.53434
C         25.74362        24.59583         0.96696
C         24.63467        25.32735         0.27158
C         25.82991        27.55270         0.77975
C         24.70832        26.81537         0.20245
C         25.84049        28.93861         0.72792
C         24.55649        29.65487         0.62214
C         25.74994        31.78880         1.11412
C         24.50203        31.02306         1.04522
C         25.73873        33.14426         1.80802
C         24.52098        33.89188         1.24363
C         25.76388        36.06872         1.34865
C         24.47972        35.36137         1.74105
C         25.75850        37.35699         0.87883
C         24.49904        38.08493         0.67554
C         25.78731        40.05420        -0.16368
C         24.51066        39.41741         0.35272
C         25.75679        41.59503        -0.27936
C         24.45468        42.36521        -0.30134
C         25.71058        44.55990        -0.02114
C         24.40455        43.89587        -0.39493
C         25.69816        45.93395         0.12442
C         24.46671        46.67887         0.18408
C         25.69538        48.79133        -0.14011
C         24.43871        48.06354         0.04383
C         25.64055        50.24322        -0.25241
C         24.45342        50.88461        -0.43639
C         25.62735        53.08019        -0.81429
C         24.38182        52.39544        -0.29788
C         25.61847        54.41055        -1.21673
C         24.38169        55.14971        -1.30446
C         25.60575        57.23539        -1.64391
C         24.35353        56.52719        -1.49452
C         25.60330        58.71356        -1.95926
C         24.27566        59.40136        -1.73648
C         24.23228        60.78582        -1.73253
C         26.80897         8.43122        -1.48572
C         28.05365        10.55495        -1.37595
C         26.85124         9.79739        -1.19987
C         28.07311        11.93929        -1.23086
C         26.85207        12.64476        -0.84423
C         27.98413        14.78705        -1.30677
C         26.83308        14.01853        -0.77880
C         27.94593        16.29524        -1.38133
C         26.77206        16.97662        -0.75418
C         28.07902        19.03527        -0.32125
C         26.82555        18.24570        -0.27078
C         28.18131        20.33518         0.40038
C         26.99643        21.01512         0.70731
C         28.26961        23.09199         1.34427
C         26.97273        22.43242         0.90065
C         28.28033        24.60929         1.21553
C         26.98618        25.32580         1.36977
C         28.27123        27.52198         1.16289
C         26.97471        26.85237         1.48399
C         28.29134        28.91505         1.19817
C         27.05872        29.62164         1.05883
C         28.21348        31.71426         1.84018
C         27.07495        31.07358         1.07615
C         28.24612        33.22269         1.69300
C         27.05809        33.89444         1.64956
C         28.29957        36.03193         1.21289
C         27.05192        35.40526         1.79280
C         28.25440        37.37415         0.84748
C         27.01735        38.08821         0.73023
C         28.24477        40.21627         0.47267
C         27.03553        39.46439         0.45273
C         28.15882        41.71971         0.62716
C         26.97076        42.38347        -0.02325
C         28.18604        44.49767         0.10069
C         26.94683        43.79773         0.01872
C         28.23516        45.95255         0.25857
C         26.93543        46.71161         0.29804
C         28.18714        48.85748        -0.42251
C         26.90637        48.14457        -0.05261
C         28.26249        50.29171         0.15441
C         26.88284        51.08577         0.09355
C         28.15606        53.01587        -1.19011
C         26.86174        52.29715        -0.85196
C         28.08818        54.46435        -1.33715
C         26.87309        55.12629        -1.41500
C         26.79828        56.55397        -1.61264
C         29.28077        12.68774        -1.39140
C         30.49160        14.83017        -1.45030
C         29.29112        14.08309        -1.38685
C         30.53062        16.23561        -1.40809
C         29.26918        17.05487        -1.60323
C         30.63406        18.86501        -0.21876
C         29.31946        18.39737        -0.85590
C         30.62773        20.37514        -0.06651
C         29.42506        21.04537         0.34276
C         30.65273        23.14358         0.49274
C         29.47280        22.42664         0.69354
C         30.67925        24.57906         0.69252
C         29.43687        25.29273         0.97063
C         30.77494        27.55127         0.66281
C         29.41205        26.76456         0.58453
C         30.74841        28.90193         1.35001
C         29.56573        29.60680         1.36271
C         30.70693        31.75319         2.16079
C         29.55800        31.11296         1.37895
C         30.76626        33.22374         1.75610
C         29.54667        33.90527         1.61275
C         30.77450        35.96066         1.06430
C         29.53885        35.30632         1.27816
C         30.79549        37.34776         0.58010
C         29.48003        38.08849         0.44392
C         30.73979        40.25493         0.57445
C         29.48908        39.56551         0.52425
C         30.70490        41.75578         0.82865
C         29.45252        42.42931         0.32510
C         30.66444        44.55171        -0.13720
C         29.43609        43.79624         0.07572
C         30.70084        45.92662        -0.17844
C         29.47839        46.70543        -0.03525
C         30.77496        48.83100        -0.04409
C         29.46526        48.06913        -0.14327
C         30.71748        50.19908        -0.75984
C         29.44919        51.00413        -0.50289
C         29.42051        52.28378        -0.93474
C         31.74599        16.93380        -1.39509
C         32.97861        19.06029        -1.06241
C         31.83193        18.31519        -1.02660
C         33.12028        20.24715        -0.13331
C         31.83920        21.04208        -0.05587
C         33.07719        23.15541        -0.02593
C         31.87300        22.45675         0.14383
C         33.04116        24.61771        -0.00237
C         31.84971        25.28152         0.53234
C         33.23600        27.37977         1.13100
C         31.93763        26.66772         1.04641
C         33.22275        28.85374         1.42404
C         32.03826        29.54451         1.61242
C         33.31115        31.76701         1.92940
C         32.02900        30.98228         2.03538
C         33.27896        33.22846         1.66187
C         32.02206        33.90171         1.59671
C         33.24520        36.02193         1.14537
C         32.01055        35.30035         1.27619
C         33.22024        37.44967         0.95663
C         32.03050        38.13187         0.73859
C         33.23612        40.28625         0.55536
C         31.97036        39.57369         0.65041
C         33.24906        41.74135         0.30574
C         31.97577        42.49499         0.39905
C         33.16010        44.47442        -0.61373
C         31.85828        43.71216        -0.50408
C         33.14645        45.84828        -0.70103
C         31.94658        46.63488        -0.47997
C         31.95713        48.00376        -0.49284
C         34.33635        21.08982        -0.39141
C         35.52646        23.25997        -0.43747
C         34.32241        22.47834        -0.31918
C         35.57026        24.65813        -0.31002
C         34.29355        25.42278        -0.22557
C         35.65936        27.45367         0.39643
C         34.29357        26.92464         0.12754
C         35.84159        28.72888         1.17030
C         34.55934        29.49721         1.55732
C         35.75194        31.77846         1.20412
C         34.58451        31.00693         1.66662
C         35.74475        33.15245         1.27356
C         34.50024        33.91430         1.43865
C         35.70553        36.06596         0.91666
C         34.48841        35.33008         1.21913
C         35.71111        37.43147         0.72210
C         34.50201        38.22665         1.12538
C         35.65057        40.26344         0.07650
C         34.43779        39.61110         0.53653
C         35.61131        41.57581        -0.40932
C         34.42396        42.35725        -0.36178
C         34.36816        43.70100        -0.71687
C         36.77266        25.38289        -0.34142
C         38.04863        27.50747        -0.08828
C         36.82196        26.78092        -0.02825
C         38.07080        28.91923         0.06474
C         36.91535        29.58313         0.52975
C         38.14916        31.78260         0.26341
C         36.86972        31.04001         0.56849
C         38.34145        33.12100         0.94190
C         37.03655        33.88836         1.15988
C         38.18882        36.04100         0.34869
C         37.00759        35.36511         0.93574
C         38.10900        37.38368         0.06195
C         36.90074        38.13382         0.28874
C         36.85484        39.49442        -0.00125
C         39.29288        29.65073        -0.19725
C         40.58980        31.77440        -0.21431
C         39.37850        31.00980        -0.02125
C         40.59751        33.14132        -0.14948
C         39.43448        33.90686         0.23797
C         39.36632        35.26554         0.05662
O         26.04119        24.80773         2.39704
O         31.15343        27.92799        -0.67491
O         22.16152        22.10300         2.00619
O         27.64058        46.39779         1.54904
O         27.39217        52.21168        -2.20070
O         23.88099         9.66274         0.87198
O         22.62060        46.42768         1.73911
O         12.47034        41.91746         2.60824
O         30.82519        18.36283         1.07311
O         32.80125        31.32694         3.23640
O         24.98929        20.64753         2.03969
O         30.15103        37.53326        -0.73614
O         23.89383         5.64099        -0.12278
O         19.58298        38.63282        -1.17253
O         25.00840        41.87447        -1.55331
O         23.03492        20.55834        -1.07069
O         23.23052        53.29819        -2.37678
O         25.18318        25.96539        -0.92591
O         26.56980        31.75140        -0.11800
O         18.22222        45.34076         1.91436
O         14.38524        25.83164        -2.25068
O         19.74886        33.41092         2.56707
O         17.86429        41.89309         2.03674
O         23.44209        41.15885         1.63009
O         13.69667        20.31740        -1.09367
O         28.61766        19.37053        -1.68922
O         15.79021        27.88200         0.54369
O         21.12470        30.92605         2.49640
O         16.87635        25.80506        -2.43971
O         32.73425        26.63627         2.30215
O         26.64205        51.61881         1.37888
O         34.85638        30.15395         2.83969
O         23.18706        27.19037        -1.57989
O         22.61272        12.15330         1.38134
O         12.77058        25.00617         0.85766
O         37.23523        34.80413         2.29938
O         33.42926        25.15087        -1.35472
O         10.05517        29.12411        -2.12299
O         19.25045        29.71379        -1.53449
O         17.44571        16.34291         2.29564
O         17.39213        40.03898        -1.05272
O         37.15448        31.69257        -0.77534
O         32.89958        42.59854         1.51229
O         27.61431        15.49843        -2.55397
O         21.82992        34.80701         2.72964
O         26.74577        27.16985         2.89729
H         26.14646        26.46989         3.25119
O         28.57919        50.14552         1.54825
H         27.92258        50.74861         2.01587
O         21.99907        28.55257         2.10484
H         21.52767        29.09969         2.77864
O         19.93677        16.77806         2.57359
H         19.17598        17.16754         3.06685
O         29.01557        26.75677        -0.81620
H         29.76025        27.27076        -1.27272
O         25.05861        15.96228        -2.10062
H         25.02211        16.83150        -2.55103
O         27.13459        35.65154         3.23910
H         26.24386        35.43095         3.61195
O         20.48765        20.36095         2.60166
H         20.93059        21.16307         2.97306
O         14.93514        42.48523         2.87664
H         14.08886        42.54327         3.37944
O         34.66777        38.43992         2.57775
H         33.93340        39.01703         2.87768
O         28.37329        22.79450         2.77214
H         27.57736        23.17725         3.20343
O         24.24251        52.69268         1.11433
H         25.09187        52.34560         1.52729
O         15.64442        32.55343         2.19183
H         14.83421        32.00935         2.29140
O         19.10005        14.23665        -1.47949
H         18.27319        13.75468        -1.69934
O         30.62374        41.86293         2.29164
H         31.52819        42.13851         2.59320
O         18.10007        19.12739         2.60441
H         18.92527        19.59397         2.90331
O         10.75901        24.35965        -2.13001
H          9.91177        23.93109        -2.37322
O         29.33521        17.37302        -3.01439
H         28.75356        18.15478        -3.15997
O         24.19248        44.23105        -1.80494
H         24.66978        43.54858        -2.33311
O         12.01066        37.79884         2.73292
H         11.23539        38.29382         3.07509
O         26.04825        14.95176         1.24947
H         25.95078        14.09705         1.71931
O         36.43491        28.25282         2.43154
H         36.19938        28.92621         3.11616
O         30.38303        31.73077         3.57485
H         31.24557        31.78505         4.05617
O         21.02529        28.06600        -2.23879
H         21.97490        27.98362        -2.50825
O         38.85809        32.78752         2.25689
H         38.69597        33.57538         2.82664
O         24.65290        34.00415        -0.18916
H         25.04820        33.18186        -0.55279
O         22.08606         7.89516         0.82455
H         21.48342         8.42790         1.38312
O          9.43095        31.57872        -2.19499
H          9.79154        30.84733        -2.75274
O         31.58197        43.14455        -1.82711
H         31.56601        43.88120        -2.47374
O         27.92674        41.93086         2.07306
H         28.81516        41.91974         2.51265
O         14.21410        39.61248        -0.98596
H         15.05987        39.38838        -1.43362
O         18.82564        24.08958        -2.34704
H         18.45888        24.77244        -2.95968
O         30.80513        49.98223        -2.18045
H         29.89842        49.74827        -2.49013
O         33.27856        19.64302         1.19843
H         32.42970        19.12709         1.37263
O         17.13375        51.49460         1.43116
H         17.25908        50.74558         2.05084
O         20.80904        48.42437        -2.03148
H         21.63848        48.87067        -2.34396
O         16.97020        43.62933        -1.02055
H         16.23058        43.04747        -1.29756
O         22.82635         7.81039        -2.77639
H         22.67096         8.77318        -2.94806
O         26.65009        59.38743        -1.24622
H         26.47695        59.29053        -0.28759
O         25.90313        39.54961        -1.53663
H         25.32535        40.10693        -2.10701
O         29.75663        31.52651         0.00286
H         29.14087        31.02500        -0.57256
O         16.64360        51.78698        -2.18012
H         17.38991        51.22109        -2.46873
O         28.16030        49.01968        -1.88123
H         27.91909        48.16170        -2.28912
O         31.01401        49.07358         1.37070
H         30.18207        49.47904         1.73621
O         14.72571        29.86258        -2.35495
H         13.93065        30.33895        -2.67486
O         27.87749        31.37904         3.21113
H         28.67878        31.54904         3.76926
O         33.85908        27.66445        -1.05597
H         32.84366        27.72890        -1.04357
O         24.41835        35.38879         3.18754
H         23.52282        35.05619         3.45109
O         25.52064        32.91334         3.21339
H         26.29445        32.38859         3.54300
O         21.89285        10.14388        -2.13121
H         20.97185        10.09947        -2.46816
O         26.06301        18.23659         1.94120
H         25.57158        18.77142         2.60517
O         18.61743        27.41761        -2.91777
H         19.49014        27.85904        -3.07033
O         21.06945        35.39422        -0.79428
H         20.58162        35.98116        -1.41249
O         16.75505        47.78659        -1.75792
H         15.92356        47.29169        -1.91810
O         23.21344        49.87597        -2.22697
H         23.27750        50.75220        -2.66893
H          4.96615        31.07792         0.44248
H          4.94250        33.53781         0.74531
H          7.45140        26.92440         0.06972
H          6.19800        29.00409         0.12314
H          6.15546        35.69851         0.74174
H          7.37714        37.83647         0.77088
H          9.95723        22.63459         0.24521
H          8.61200        24.78101        -0.13861
H          8.59696        39.95836         0.89047
H          9.82314        42.10196         0.65076
H         12.42133        18.21930         1.14462
H         11.18540        20.79037         1.11642
H         11.08516        44.36002         0.85751
H         12.27618        46.43343         0.62174
H         14.77709        14.09522         0.54315
H         13.52421        16.23643         0.58988
H         13.49603        48.59715         0.44393
H         14.75925        50.70653         0.35248
H         17.21603         9.86378        -0.17019
H         15.98697        12.00937         0.25489
H         16.01288        52.82745        -0.51633
H         17.21153        54.88404        -1.05965
H         19.63518         5.71123        -1.47068
H         18.42161         7.83768        -0.93912
H         18.43233        57.04068        -1.22169
H         19.65513        59.18802        -1.34525
H         22.98378         2.40599        -2.36990
H         20.87001         3.58004        -1.89545
H         22.99947        62.57730        -1.62821
H         20.85778        61.31937        -1.47138
H         25.14670         3.57112        -2.42655
H         26.44881         5.83400        -2.26464
H         25.85653        58.82576        -3.05260
H         25.17033        61.35197        -1.82059
H         27.72989         7.92768        -1.81534
H         28.97261        10.02818        -1.67423
H         29.02396        55.04305        -1.31296
H         27.73505        57.11184        -1.76161
H         30.22716        12.14082        -1.52273
H         31.44553        14.27890        -1.46585
H         31.61912        50.79276        -0.45996
H         30.34354        52.72802        -1.34427
H         32.68341        16.35364        -1.43561
H         33.84018        18.73864        -1.67019
H         34.09472        46.38917        -0.84607
H         32.89792        48.53539        -0.70524
H         35.29421        20.57066        -0.54945
H         36.47594        22.71872        -0.56833
H         36.52600        42.01901        -0.83123
H         35.29298        44.21324        -1.02521
H         37.71745        24.85266        -0.53423
H         38.96682        26.98462        -0.39376
H         38.98083        37.90481        -0.36191
H         37.76624        39.99109        -0.36723
H         40.18977        29.07552        -0.47228
H         41.50418        31.23421        -0.50073
H         41.51098        33.69243        -0.42023
H         40.22252        35.79006        -0.39664
