         638
 CSIRO Nanostructure Databank - Neutral Graphene Oxide Data Set
C         23.21807        69.66929         1.64157
C         23.21578        71.06738         1.94247
C         22.00222        71.77099         2.16283
C         23.21638        73.85846         2.39282
C         22.01578        73.14472         2.39352
C         25.55524        65.61337         0.03277
C         25.54501        67.00569         0.34772
C         24.38380        67.64669         0.79209
C         25.63759        69.71295         1.22871
C         24.39689        69.00565         1.23003
C         25.73974        71.03922         1.93495
C         24.43826        71.79089         1.97402
C         25.68796        73.91886         2.12003
C         24.44639        73.19076         2.17897
C         28.02518        61.49216        -0.80765
C         27.98290        62.88899        -0.82493
C         26.76360        63.56933        -0.55278
C         27.93212        65.77196        -0.78292
C         26.71812        64.96039        -0.38775
C         27.98608        67.12625        -0.12940
C         26.79127        67.74305         0.28764
C         28.02849        69.84696         0.65749
C         26.80502        69.10169         0.73599
C         28.00010        71.27599         0.91704
C         26.89855        71.87787         1.46388
C         28.08564        74.06060         1.55804
C         26.87535        73.31391         1.71415
C         30.39253        57.19462        -0.33532
C         30.39066        58.61053        -0.41154
C         29.20545        59.38457        -0.46644
C         30.51251        61.47589        -0.76265
C         29.25499        60.76635        -0.71710
C         30.43961        62.87467        -1.42197
C         29.22241        63.63891        -0.94177
C         30.47403        65.72755        -0.61511
C         29.23542        65.00232        -0.72187
C         30.48040        67.11015        -0.28469
C         29.22127        67.81148        -0.04280
C         30.50150        69.92587         0.51917
C         29.21488        69.18694         0.31018
C         30.41783        71.39636         0.27363
C         29.11701        72.12415         0.36730
C         30.46301        74.18646         0.91286
C         29.23754        73.49354         1.00512
C         32.81296        52.88060        -0.38469
C         32.79611        54.27048        -0.41037
C         31.60038        55.03052        -0.38915
C         32.82061        57.18748        -0.63075
C         31.59442        56.46089        -0.41021
C         32.83662        58.57392        -0.67740
C         31.63382        59.31187        -0.48984
C         33.01111        61.33225        -0.29285
C         31.67806        60.74454        -0.49857
C         32.92276        63.21269        -1.93700
C         31.70491        63.71385        -1.39819
C         32.94946        65.73344        -0.74655
C         31.71010        65.03135        -0.87393
C         32.96017        67.11627        -0.38562
C         31.71547        67.80817        -0.17790
C         32.90353        69.95372        -0.10959
C         31.73044        69.23897        -0.00917
C         32.92120        71.41940        -0.24733
C         31.58948        72.17792        -0.04001
C         32.88332        74.24585         0.41262
C         31.64941        73.59303         0.40303
C         35.38706        48.58794         0.20757
C         35.36289        50.00727         0.06112
C         34.14798        50.70054         0.02726
C         35.35310        52.83118        -0.60511
C         34.05611        52.09000        -0.43982
C         35.33819        54.31034        -0.60411
C         34.07795        55.06677        -0.26953
C         35.35304        57.13459        -0.76952
C         34.04605        56.39575        -1.02376
C         35.33209        58.62871        -0.59628
C         34.06989        59.27473        -1.21321
C         35.40526        61.46346        -1.07801
C         34.13511        60.76138        -0.86157
C         35.43842        62.91877        -1.66556
C         34.16800        63.73350        -1.49863
C         35.42365        65.72642        -0.71546
C         34.18351        65.04010        -0.94259
C         35.42496        67.12301        -0.42978
C         34.19340        67.80009        -0.26054
C         35.37776        69.99753        -0.53030
C         34.21095        69.25731         0.13247
C         35.39663        71.47827        -0.17541
C         34.17398        72.16037        -0.05136
C         35.35361        74.27466         0.26420
C         34.13746        73.58109         0.17336
C         37.85419        44.29497         0.04136
C         37.85193        45.71385         0.03833
C         36.63762        46.45469         0.20497
C         37.85803        48.61640         0.15207
C         36.58908        47.85785         0.19861
C         37.83966        50.06283        -0.15284
C         36.63063        50.71845        -0.10584
C         37.86119        52.86254        -0.56545
C         36.61194        52.21775        -0.02011
C         37.76287        54.24592        -1.02682
C         36.50284        54.98721        -0.77663
C         37.85994        57.10046        -0.42680
C         36.52376        56.44746        -0.71428
C         37.83019        58.59173        -0.61693
C         36.60363        59.24064        -1.17956
C         37.90664        61.41265        -1.24789
C         36.58344        60.75460        -1.14451
C         37.95071        62.94455        -1.23216
C         36.67516        63.65572        -1.18810
C         37.90911        65.72202        -0.63225
C         36.66110        65.00437        -0.82555
C         37.87772        67.15438        -0.49785
C         36.68417        67.84011        -0.39205
C         37.88212        70.07075        -0.87855
C         36.71518        69.34226        -0.15518
C         37.87704        71.52748        -0.41356
C         36.61642        72.18042        -0.12795
C         37.82139        74.29175         0.29653
C         36.61355        73.60759         0.14072
C         40.18545        39.92810         0.21866
C         40.25705        41.42585        -0.01006
C         39.07828        42.13656         0.02694
C         40.29487        44.25986        -0.21436
C         39.05134        43.56815        -0.06715
C         40.29851        45.68075        -0.33738
C         39.08634        46.39040        -0.18019
C         40.26799        48.58397        -0.70058
C         39.13349        47.85675        -0.06981
C         40.29926        50.06382        -0.61626
C         39.10489        50.75655        -0.39206
C         40.31334        52.90651        -0.88866
C         39.07237        52.19128        -0.60953
C         40.31346        54.29253        -1.04621
C         39.05531        55.00825        -1.26990
C         40.33000        57.18719        -0.84069
C         39.02501        56.53689        -1.29023
C         40.29614        58.55504        -0.48132
C         39.03225        59.28242        -0.57219
C         40.17850        61.38994        -0.01807
C         39.06956        60.69100        -0.74074
C         40.24254        62.87208        -0.23897
C         39.16206        63.59646        -0.66569
C         40.36450        65.73113        -0.24568
C         39.13563        65.04286        -0.54872
C         40.39608        67.18752        -0.25075
C         39.16862        67.88656        -0.78809
C         40.28202        70.04600        -0.21421
C         39.15416        69.36260        -0.48013
C         40.33767        71.51034        -0.59185
C         39.05678        72.19174        -0.21430
C         40.35309        74.32214        -0.01151
C         39.12401        73.55443         0.42172
C         42.76707        35.67475         0.20673
C         42.73122        37.04164         0.02778
C         41.50723        37.81705         0.04981
C         42.70084        39.95185        -0.35977
C         41.48037        39.18305        -0.01605
C         42.74351        41.42033        -0.23505
C         41.51547        42.11897        -0.14135
C         42.76709        44.24860        -0.24665
C         41.52402        43.54470        -0.21291
C         42.76363        45.68252        -0.36473
C         41.54815        46.36690        -0.49623
C         42.81499        48.53131        -0.88066
C         41.56009        47.78999        -0.87255
C         42.77526        49.96804        -1.36375
C         41.52905        50.75231        -0.92138
C         42.79945        52.88882        -1.27481
C         41.54269        52.13844        -0.98925
C         42.80761        54.34234        -0.83408
C         41.57562        55.06694        -1.38658
C         42.78348        57.16955        -0.59821
C         41.55009        56.50392        -0.91249
C         42.75753        58.55856        -0.27613
C         41.51483        59.27030        -0.27109
C         42.71598        61.38446         0.11589
C         41.50531        60.67554        -0.10535
C         42.72111        62.80186         0.23053
C         41.41952        63.54913         0.40348
C         42.75128        65.66605         0.33553
C         41.50817        65.01222         0.09413
C         42.77383        67.15991         0.54717
C         41.50779        67.87090         0.13516
C         42.77231        70.01361        -0.34025
C         41.52401        69.37703         0.29802
C         42.77419        71.52807        -0.12503
C         41.60660        72.21951        -0.17930
C         42.80350        74.41527        -0.37493
C         41.56915        73.69218        -0.19187
C         45.28681        32.91588         0.86263
C         44.03940        33.60801         0.69694
C         45.29037        35.60872        -0.07508
C         43.99987        34.93485         0.33603
C         45.29624        37.08398         0.23381
C         44.00036        37.81053         0.12156
C         45.26957        39.99599        -0.24709
C         44.01427        39.22492        -0.34431
C         45.25334        41.38436        -0.21851
C         43.98521        42.10584        -0.23208
C         45.23427        44.26357        -0.10111
C         43.99216        43.53318        -0.19421
C         45.19630        45.70244        -0.12902
C         44.00865        46.41397        -0.33184
C         45.22889        48.59869        -0.54791
C         44.00303        47.86628        -0.54502
C         45.22738        50.00241        -0.79607
C         44.06882        50.70297        -1.08094
C         45.34941        52.93582        -0.98251
C         44.11463        52.16421        -1.30593
C         45.33587        54.31382        -0.80161
C         44.10122        55.09643        -1.19876
C         45.21963        57.13393        -0.20346
C         44.04209        56.49170        -0.62098
C         45.19246        58.52491         0.13326
C         43.96860        59.24989         0.02831
C         45.14831        61.35280         0.59786
C         43.95069        60.66206         0.22952
C         45.13105        62.77544         0.67657
C         43.93451        63.49455         0.42939
C         45.20518        65.67250         0.55647
C         43.93646        64.95224         0.45759
C         45.24665        67.06603         0.34021
C         44.01987        67.75867        -0.21071
C         45.03344        69.73681         0.83177
C         44.01214        69.23800         0.07564
C         45.14316        71.86203         0.68900
C         44.07987        72.25784        -0.29260
C         45.32287        74.34962        -0.41679
C         44.03983        73.75893        -0.36947
C         46.49640        33.54681         0.73475
C         47.74038        35.65687         0.37716
C         46.56820        34.94450         0.38700
C         47.78895        37.10773         0.18933
C         46.55632        37.80358         0.01452
C         47.81601        40.02190        -0.00472
C         46.52322        39.23515        -0.25941
C         47.69185        41.45478         0.22649
C         46.49261        42.12861         0.00199
C         47.71579        44.28954         0.15349
C         46.45560        43.57266         0.06065
C         47.73277        45.70359         0.05016
C         46.45702        46.43058         0.09335
C         47.78362        48.54127        -0.46095
C         46.48066        47.93640        -0.15577
C         47.80711        49.95165        -0.91369
C         46.52637        50.71350        -0.91918
C         47.70942        52.80744        -0.29774
C         46.56259        52.18923        -0.72228
C         47.84495        54.30706        -0.43129
C         46.51880        55.03118        -0.40655
C         47.66034        57.09501         0.35726
C         46.47571        56.39882        -0.12023
C         47.60474        58.43745         0.70703
C         46.38105        59.20156         0.56580
C         47.58757        61.29693         1.19759
C         46.33971        60.58626         0.83948
C         47.58262        62.78338         1.33889
C         46.25619        63.54506         1.34228
C         47.61677        65.67124         0.96659
C         46.38783        64.97640         0.87910
C         47.63866        67.09295         0.87750
C         46.42554        67.78914         0.63789
C         47.56689        69.99171         0.90952
C         46.38601        69.21286         0.80312
C         47.61094        71.45870         0.84105
C         46.43276        72.27334         0.51509
C         47.73758        74.27563         0.07042
C         46.53066        73.63249        -0.05975
C         48.97946        37.81311         0.35133
C         50.23461        40.04921         0.40612
C         48.96204        39.28498         0.67007
C         50.21636        41.41727         0.44411
C         48.91991        42.15726         0.74916
C         50.16666        44.30638         0.31619
C         48.94173        43.60859         0.34202
C         50.18227        45.71510         0.14853
C         48.95011        46.41822         0.03320
C         50.23546        48.54211        -0.26019
C         48.95561        47.84569        -0.22959
C         50.26907        49.92860        -0.31367
C         49.10246        50.75753        -0.78284
C         50.13967        52.70005         0.49598
C         48.85364        51.93083         0.18165
C         50.12785        54.17449         0.75873
C         48.91864        54.96721         0.40777
C         50.12303        57.05456         0.92588
C         48.89316        56.32925         0.57711
C         50.09607        58.41263         1.16477
C         48.79052        59.11761         1.35959
C         50.09288        61.27394         1.00379
C         48.86534        60.58861         1.01823
C         50.10620        62.75342         0.77095
C         48.82537        63.51174         0.92047
C         50.07192        65.66525         1.15855
C         48.86664        64.97872         1.09226
C         50.08039        67.11554         1.16278
C         48.84666        67.83305         1.01500
C         50.06820        69.95633         0.95810
C         48.82307        69.26469         0.96661
C         50.08570        71.38583         0.83008
C         48.84607        72.11151         0.79787
C         50.16788        74.21023         0.37099
C         48.86899        73.62977         0.82211
C         51.42668        42.18719         0.36819
C         52.65737        44.31428         0.37113
C         51.43067        43.57715         0.37486
C         52.68920        45.69752         0.24397
C         51.43907        46.42613         0.08652
C         52.75298        48.50757        -0.41615
C         51.45694        47.80088        -0.10227
C         52.72267        49.97203        -0.06671
C         51.48820        50.65137        -0.04831
C         52.65132        52.78154         0.13597
C         51.44910        52.04687         0.20013
C         52.59452        54.29398         0.01687
C         51.48665        54.87543         0.94303
C         52.58077        57.10198         0.84038
C         51.38953        56.37397         0.83828
C         52.60016        58.48480         1.10314
C         51.34404        59.16112         1.56883
C         52.58033        61.33601         0.77856
C         51.31413        60.61324         1.16816
C         52.57036        62.81187         1.12043
C         51.35980        63.51852         0.99053
C         52.55230        65.62445         1.32907
C         51.33510        64.92914         1.17157
C         52.55515        67.10009         1.63830
C         51.29391        67.82129         1.22450
C         52.55741        69.92737         0.97208
C         51.30321        69.23231         1.06657
C         52.55840        71.33053         0.72262
C         51.32577        72.05270         0.66917
C         52.58184        74.11655         0.09514
C         51.34606        73.47714         0.37276
C         53.92173        46.43675         0.32171
C         55.17019        48.57006         0.27055
C         53.97829        47.80394         0.11139
C         55.18576        49.96608         0.18515
C         53.92204        50.69070         0.05809
C         55.16824        52.87415        -0.12996
C         53.88364        52.10581         0.07368
C         55.08772        54.29042         0.39785
C         53.90355        54.95624         0.37294
C         54.99738        56.99056         1.38022
C         53.90044        56.46384         0.46265
C         55.06292        58.49469         1.26574
C         53.84366        59.19715         1.15125
C         55.03408        61.31866         1.35740
C         53.84714        60.62740         1.17878
C         55.02358        62.77767         1.73491
C         53.76818        63.50604         1.34317
C         55.04919        65.63210         1.31345
C         53.77774        64.92207         1.37124
C         55.03729        67.07596         1.17040
C         53.82845        67.79253         1.21390
C         55.03186        69.90494         0.85703
C         53.80241        69.20520         1.02098
C         55.02840        71.31468         0.60290
C         53.79620        72.01545         0.51131
C         55.02666        74.08050        -0.05106
C         53.80131        73.41981         0.18279
C         56.37831        50.72533         0.37346
C         57.57952        52.84906         0.58777
C         56.39630        52.11675         0.32388
C         57.59315        54.24192         0.74646
C         56.33408        54.98797         0.74285
C         57.52654        56.98586         1.69337
C         56.31118        56.29983         1.13170
C         57.52416        58.48433         1.49117
C         56.28650        59.18820         1.38442
C         57.50596        61.34768         1.46217
C         56.28182        60.62354         1.41606
C         57.50715        62.78971         1.37401
C         56.29210        63.50508         1.36720
C         57.51429        65.60089         0.74268
C         56.25497        64.91755         1.22534
C         57.52556        67.08698         0.97679
C         56.28451        67.78103         1.01998
C         57.50768        69.91249         0.82985
C         56.27283        69.20141         0.92102
C         57.50196        71.32156         0.58580
C         56.26129        72.00554         0.42411
C         57.48154        74.06745        -0.13598
C         56.25562        73.40256         0.07944
C         58.80228        54.95162         0.98207
C         60.00535        57.06317         1.39489
C         58.81768        56.31491         1.29799
C         59.98351        58.46271         1.56492
C         58.72917        59.18864         1.53965
C         59.97150        61.33394         1.59499
C         58.73943        60.63129         1.51605
C         59.99584        62.78032         1.49035
C         58.76949        63.49760         1.32738
C         60.01233        65.61238         1.12936
C         58.79170        64.90187         1.15251
C         60.00843        67.05385         0.99642
C         58.74526        67.77905         0.96427
C         59.97131        69.94492         0.85170
C         58.74527        69.21508         0.90858
C         59.95585        71.36322         0.75865
C         58.73162        72.03248         0.50905
C         59.90186        74.16717         0.00232
C         58.72116        73.43230         0.10942
C         61.18359        59.20422         1.69232
C         62.47172        61.30264         2.01847
C         61.17919        60.59072         1.73662
C         62.47282        62.74691         1.57879
C         61.22472        63.48107         1.44173
C         62.50301        65.59991         1.15080
C         61.26102        64.90146         1.23714
C         62.48334        67.02623         0.93393
C         61.21608        67.74745         0.91750
C         62.37266        69.87182         0.42465
C         61.21954        69.19979         0.77060
C         62.43094        71.33618         0.31905
C         61.21852        72.14172         0.71629
C         62.16144        74.01130        -0.70371
C         61.23368        73.65018         0.42632
C         63.66324        63.35935         1.40925
C         64.33316        65.07371        -0.26816
C         63.82627        64.82340         1.15913
C         64.73532        66.34617        -0.57402
C         63.64704        67.77866         0.71254
C         64.47347        69.51259        -0.94439
C         63.72923        69.23083         0.41149
C         64.24221        70.91952        -1.43803
C         63.35048        71.86335        -0.70426
C         63.88066        73.57335        -2.42276
C         63.09709        73.13777        -1.26963
C         64.92750        67.05776        -1.78584
C         65.42048        68.94584        -3.17512
C         64.91965        68.46442        -1.94669
C         65.35660        70.29050        -3.60223
C         64.36444        71.20000        -2.92279
C         65.33364        73.06132        -4.34911
C         64.55900        72.67515        -3.20394
C         66.05601        70.75382        -4.71383
C         66.02768        72.12507        -5.08474
O         39.25809        67.85025        -2.21806
O         47.47249        39.60303        -1.34478
O         38.28848        54.44732        -2.39854
O         38.17977        62.19683        -2.49149
O         32.14330        71.91230        -1.39187
O         44.81605        70.88454         1.61391
O         47.67624        61.98609         2.55810
O         44.61602        37.58051         1.44638
O         40.63481        48.07620        -2.00327
O         64.88681        67.21618         0.56244
O         49.32177        63.12628        -0.42119
O         65.49645        70.54815        -0.76043
O         43.31497        39.43917        -1.61222
O         46.40085        47.38094         1.21600
O         49.96903        53.21771         1.88087
O         47.15906        50.24725        -2.20313
O         62.27167        71.88473         1.70471
O         34.79712        52.21943        -1.77969
O         43.42304        52.60543        -2.57201
O         38.78837        48.33943         1.27480
O         36.99889        69.56142         1.25183
H         36.18394        69.32941         1.75938
O         64.72342        65.25935         2.18911
H         65.12573        66.11893         1.92965
O         39.13007        39.34952        -0.56195
H         39.36972        39.43397        -1.50768
O         42.64208        69.82789        -1.78599
H         43.35200        70.38455        -2.19066
O         43.91346        67.44361        -1.60541
H         43.26251        68.07733        -1.99734
O         48.70233        74.02864         2.24351
H         49.39596        73.56374         2.75810
O         30.14119        62.55695        -2.81876
H         30.95675        62.16065        -3.20377
O         48.36929        54.48076        -1.81693
H         47.63353        54.27225        -2.43337
O         51.36091        59.13483         3.06851
H         51.71639        58.26019         3.34128
O         36.53559        52.54937         1.41278
H         37.25311        52.06300         1.87241
O         41.17208        63.50133         1.87810
H         41.93156        63.95181         2.31063
O         52.59821        61.29483        -0.69887
H         51.79208        61.75611        -1.01810
O         37.75019        69.98664        -2.30661
H         38.29209        69.17779        -2.58428
O         27.75696        66.05916        -2.21764
H         27.79603        65.20202        -2.69425
O         28.75086        72.36860        -1.04704
H         29.51774        72.80222        -1.48103
O         57.41555        56.80759         3.16935
H         57.66059        55.87648         3.36229
O         63.58555        60.59469         1.46525
H         63.49446        60.59208         0.49070
O         44.19884        55.25687        -2.63380
H         43.91657        54.40417        -3.04596
O         45.81858        63.66247         2.73227
H         46.23516        62.90818         3.21754
O         48.80833        42.15096         2.22670
H         49.57996        42.64438         2.57952
O         26.04427        70.69376         3.35037
H         25.26207        70.21481         3.69987
O         34.03958        59.04148        -2.64168
H         34.95488        59.18082        -2.99182
O         30.73130        69.86250         2.01070
H         29.88681        70.12319         2.44202
O         41.62377        69.67582         1.72972
H         40.74234        69.52220         2.13143
O         33.07196        62.39006         0.56326
H         34.00362        62.66779         0.67921
O         52.56041        67.17405         3.11657
H         52.56214        68.12407         3.36097
O         48.40226        51.29433         1.40179
H         48.58169        51.92387         2.13828
O         39.29313        73.32174         1.88393
H         38.54272        72.76002         2.17556
O         36.66986        58.88469        -2.61277
H         37.47224        58.31626        -2.76340
O         34.17629        55.42878         1.14361
H         34.30918        54.60458         1.65834
O         40.40084        71.53562        -2.05480
H         41.03617        70.82723        -2.32132
O         54.63056        56.68887         2.75581
H         55.44141        56.84082         3.29937
O         35.14167        69.86753        -1.94214
H         36.00740        70.01479        -2.40989
O         48.71277        39.35443         2.11532
H         48.73235        40.31179         2.37613
O         35.33969        58.90544         0.82754
H         34.61635        58.38437         1.23762
O         32.88541        62.19465        -2.83561
H         33.80793        62.02579        -3.15684
O         49.47413        51.29018        -2.07049
H         48.69725        51.14095        -2.66565
O         61.63622        74.36300         1.63264
H         62.24318        73.75757         2.11898
O         44.58034        71.77904        -1.60624
H         45.26643        72.41367        -1.90991
O         57.46973        65.46150        -0.73216
H         57.42251        64.50167        -0.93082
O         42.66607        49.90726        -2.82655
H         42.80969        50.82696        -3.15724
O         48.53500        59.08691         2.80747
H         49.39294        59.31380         3.24555
O         42.73040        54.35037         0.60838
H         41.83868        54.04416         0.87818
O         54.20972        56.92802        -0.88105
H         53.57997        56.48494        -1.49192
O         38.20845        56.78841         0.94914
H         37.60732        57.30065         1.53086
O         35.56785        62.66751        -3.10290
H         36.50835        62.38594        -3.25795
O         52.87646        48.45590        -1.88483
H         52.12721        48.96759        -2.25871
O         51.96383        54.64184         2.28998
H         51.39923        53.93085         2.67962
O         39.77622        61.24207         1.41069
H         40.27738        61.93366         1.91525
O         41.63794        55.05527        -2.83334
H         40.89939        55.60486        -3.17277
O         54.99713        62.77085         3.21269
H         55.82393        62.33987         3.51798
O         52.30486        54.63079        -1.36904
H         51.47835        54.17550        -1.64036
O         38.78756        56.94944        -2.66223
H         38.36930        56.17279        -3.11297
O         63.05228        70.84432        -3.47404
H         63.07402        71.04213        -4.43414
O         45.31373        35.55687        -1.54034
H         45.35520        34.61346        -1.80363
O         34.38186        69.32267         1.59405
H         33.57265        68.94711         2.00454
O         33.95749        56.15187        -2.44499
H         33.87231        57.03894        -2.87300
O         64.50940        69.83822         1.46511
H         65.12994        70.47534         1.03047
O         55.31835        53.01914        -1.58295
H         54.55368        53.54602        -1.90293
O         42.98407        67.35263         1.96607
H         42.68663        68.27222         2.18663
H         23.21234        74.94582         2.55445
H         25.67058        75.00245         2.31101
H         28.10501        75.10982         1.89170
H         30.52190        75.20988         1.31540
H         32.91552        75.30533         0.71004
H         35.34495        75.35750         0.45911
H         37.80228        75.36607         0.53857
H         40.29452        75.42097        -0.05611
H         42.76989        75.51454        -0.42712
H         45.40977        75.43547        -0.57626
H         47.84733        75.32773        -0.23249
H         50.20729        75.28944         0.15805
H         52.58646        75.18796        -0.15325
H         55.02226        75.14784        -0.31591
H         57.47400        75.12487        -0.43899
H         59.84122        75.22470        -0.29607
H         62.06783        75.02374        -1.12465
H         63.88668        74.64477        -2.67468
H         65.39522        74.12802        -4.60949
H         22.26198        69.12561         1.62951
H         21.04995        71.22213         2.14179
H         21.06885        73.67626         2.56370
H         24.63827        65.02600         0.19652
H         23.43691        67.08721         0.82469
H         27.08327        60.93219        -0.70435
H         25.85666        62.97370        -0.36548
H         29.43410        56.66026        -0.25744
H         28.22713        58.88731        -0.39009
H         31.85762        52.33387        -0.33644
H         30.63359        54.50387        -0.37051
H         34.43106        48.04674         0.26463
H         33.21469        50.15020         0.22077
H         36.90524        43.75565         0.17793
H         35.69471        45.89397         0.28830
H         39.89187        39.77018         1.29540
H         38.12927        41.59405         0.15047
H         41.82064        35.11827         0.29526
H         40.56114        37.27772         0.21310
H         45.25650        31.85641         1.15389
H         43.10526        33.07008         0.91624
H         47.42945        33.00659         0.95306
H         48.68426        35.14621         0.62474
H         49.90949        37.25666         0.54538
H         51.18634        39.51039         0.27894
H         52.38302        41.64640         0.30294
H         53.60180        43.75683         0.46236
H         54.83637        45.89213         0.60406
H         56.10861        48.04056         0.49879
H         57.31088        50.18770         0.60716
H         58.51811        52.29256         0.73936
H         59.75878        54.42012         0.85916
H         60.97427        56.55764         1.26337
H         62.14431        58.67361         1.76567
H         62.62092        61.29196         3.13622
H         64.58808        62.77989         1.54868
H         64.02199        64.38694        -1.06728
H         65.17869        66.47026        -2.68290
H         65.94975        68.22913        -3.82312
H         66.70237        70.06133        -5.27275
H         66.62016        72.44815        -5.95237
