         344
 CSIRO Nanostructure Databank - Neutral Graphene Oxide Data Set
C          1.26968         2.08122        -1.17645
C          1.20766         3.52214        -1.00425
C          2.41730         1.39695        -0.97549
C          2.34807         4.27418        -0.90984
C          1.11492         6.43729        -0.60951
C          1.04854         7.70233        -0.13573
C          2.35859         5.70150        -0.61123
C          2.22773         8.37699         0.43134
C          1.02698        10.68598         0.18194
C          1.11362        12.02300         0.00854
C          2.18171         9.90353         0.64849
C          2.34067        12.76971         0.23469
C          1.09136        14.97317         0.14482
C          1.10704        16.36473         0.08003
C          2.29499        14.23905         0.14461
C          2.32600        17.07322         0.08786
C          2.37294        18.51768        -0.04137
C          3.65589         2.15052        -0.53889
C          3.65181         3.54969        -1.17306
C          4.95676         1.42721        -0.78586
C          4.87648         4.31119        -0.74269
C          3.54691         6.35562        -0.26846
C          3.55388         7.74047         0.21501
C          4.80167         5.61080        -0.34173
C          4.73652         8.44993         0.39639
C          3.47016        10.64871         0.85243
C          3.50171        12.10454         0.58019
C          4.78784         9.85869         0.85825
C          4.81446        12.86428         0.73907
C          3.51617        14.94812         0.14328
C          3.53869        16.34576         0.14674
C          4.76513        14.15064        -0.15022
C          4.82147        17.08522         0.43217
C          3.55288        19.19157        -0.15618
C          4.82972        18.52212        -0.04237
C          6.15454         2.09991        -0.83831
C          6.18340         3.60465        -1.03418
C          7.42020         1.43539        -0.86157
C          7.40698         4.22933        -0.41784
C          6.02936         6.33075         0.08245
C          6.00364         7.82267        -0.15692
C          7.33427         5.62974         0.03195
C          7.29648         8.52135         0.18488
C          6.12736        10.63339         0.88480
C          6.06294        12.07850         0.43159
C          7.30120         9.87831         0.31354
C          7.26305        12.77242         0.18669
C          6.06081        14.92672         0.00952
C          6.06836        16.32887         0.06417
C          7.25790        14.19292        -0.05711
C          7.30531        17.05480         0.03756
C          6.01774        19.19150        -0.16019
C          7.30083        18.52989         0.00132
C          8.64116         2.14012        -0.75880
C          8.60137         3.57957        -0.49396
C          9.88174         1.47731        -0.74092
C          9.88702         4.37492        -0.43407
C          8.58459         6.40867         0.14280
C          8.55331         7.76737         0.21765
C          9.78924         5.58230         0.52142
C          9.76571         8.46911         0.72106
C          8.59884        10.61111         0.06981
C          8.54392        12.10031         0.21731
C          9.75374         9.95437         0.80600
C          9.77248        12.79274         0.17782
C          8.51529        14.89817        -0.47625
C          8.49194        16.36841        -0.13845
C          9.79908        14.21054        -0.07360
C          9.74344        17.11982        -0.29584
C          8.47635        19.23187         0.01389
C          9.77644        18.51946         0.28573
C         11.11793         2.14622        -0.45775
C         11.12316         3.54961        -0.19791
C         12.33920         1.43737        -0.40296
C         12.32003         4.22678         0.10091
C         11.08210         6.36932         0.53568
C         11.06090         7.75133         0.71327
C         12.31509         5.64682         0.39247
C         12.26923         8.52670         0.72086
C         11.04859        10.73392         0.99411
C         11.02416        12.11002         0.36733
C         12.28855         9.91797         0.66868
C         12.23966        12.79133         0.25914
C         11.00338        14.89531        -0.13352
C         11.03379        16.35914        -0.34649
C         12.25628        14.21375         0.04494
C         12.28410        17.09552        -0.11051
C         11.04638        19.24010        -0.06023
C         12.26528        18.53962        -0.10073
C         13.56798         2.09978        -0.15800
C         13.55897         3.51765         0.08225
C         14.80626         1.41171        -0.16280
C         14.78534         4.21752         0.25486
C         13.53893         6.32367         0.52504
C         13.57196         7.78239         0.92409
C         14.76833         5.63956         0.42644
C         14.73500         8.47983         0.23950
C         13.53040        10.64898         0.56686
C         13.50504        12.09218         0.40627
C         14.75566         9.96108         0.51240
C         14.70047        12.79720         0.28013
C         13.47247        14.93009         0.01221
C         13.48719        16.37619        -0.05766
C         14.72245        14.22351         0.04505
C         14.73227        17.07263        -0.08375
C         13.51755        19.21716        -0.08723
C         14.73975        18.51092        -0.08445
C         16.03333         2.08969         0.03372
C         16.02186         3.51407         0.23606
C         17.27705         1.41005         0.01370
C         17.25090         4.21983         0.41179
C         16.01699         6.36101         0.52603
C         16.03194         7.77048         0.53497
C         17.24534         5.64102         0.55438
C         17.24706         8.49061         0.58882
C         15.99951        10.63762         0.54581
C         15.97435        12.10512         0.55163
C         17.22946         9.93788         0.52953
C         17.28349        12.81879         0.21413
C         15.92952        14.90867        -0.19075
C         15.95622        16.34575        -0.21644
C         17.13702        14.08633        -0.60757
C         17.17229        17.06662        -0.31245
C         15.98692        19.19154        -0.06587
C         17.20171        18.48722        -0.15763
C         18.50084         2.09771         0.18218
C         18.48782         3.52182         0.38680
C         19.74865         1.42462         0.14194
C         19.71440         4.23345         0.58039
C         18.47512         6.35259         0.69330
C         18.47625         7.78466         0.68675
C         19.69423         5.63697         0.77689
C         19.73272         8.49537         0.62107
C         18.47541        10.63502         0.33008
C         18.47942        12.00390         0.03139
C         19.71656         9.88688         0.34422
C         19.71722        12.64701        -0.53482
C         18.44424        14.86363        -0.71914
C         18.43902        16.37041        -0.59337
C         19.71712        14.16384        -0.45515
C         19.71035        17.05910        -0.32007
C         18.46341        19.16926        -0.09914
C         19.68853        18.49135        -0.12636
C         20.96594         2.12020         0.29513
C         20.95790         3.52864         0.53009
C         22.21985         1.43991         0.18346
C         22.19929         4.25173         0.67145
C         20.93011         6.36251         1.23062
C         20.96312         7.80886         0.79496
C         22.20100         5.62349         0.91710
C         22.20441         8.49768         0.67442
C         20.95980        10.59795         0.24223
C         20.94616        11.98104         0.02040
C         22.20725         9.89772         0.40635
C         22.18170        12.73308         0.15169
C         20.87470        14.88892        -0.34246
C         20.90154        16.34235        -0.30808
C         22.16022        14.21028        -0.01939
C         22.17103        17.03833        -0.15975
C         20.93541        19.17086         0.00405
C         22.15352        18.48379        -0.02289
C         23.43295         2.11233         0.30956
C         23.44754         3.52519         0.57831
C         24.68421         1.41714         0.09142
C         24.68118         4.21784         0.67595
C         23.47751         6.35669         1.22038
C         23.45958         7.80519         0.78564
C         24.71739         5.61054         0.80591
C         24.67810         8.47347         0.61291
C         23.45051        10.61040         0.29154
C         23.45810        12.01174         0.13055
C         24.69740         9.91228         0.40643
C         24.66975        12.75294         0.09127
C         23.42375        14.88850        -0.49090
C         23.38954        16.36146        -0.16933
C         24.67362        14.17356        -0.03669
C         24.63678        17.05090         0.00313
C         23.39823        19.17935         0.03277
C         24.61952        18.50745         0.03362
C         25.89937         2.03875         0.22362
C         25.96526         3.43182         0.79487
C         27.14661         1.36555        -0.01397
C         27.18297         4.21020         0.36024
C         25.94138         6.33803         0.63735
C         25.91792         7.73913         0.56699
C         27.16778         5.58588         0.40118
C         27.13640         8.51179         0.11856
C         25.90142        10.64188         0.39351
C         25.90787        12.04789         0.23382
C         27.18830         9.91917         0.71509
C         27.13393        12.79098         0.21910
C         25.86892        14.89966         0.11374
C         25.83855        16.34719         0.11703
C         27.10559        14.18481         0.23754
C         27.11175        17.09825         0.41654
C         25.86120        19.20859        -0.06766
C         27.08100        18.54094        -0.03434
C         28.35013         2.03954        -0.06079
C         28.40080         3.49064         0.04889
C         29.61156         1.32954        -0.22609
C         29.58934         4.16683        -0.21504
C         28.45899         6.30709         0.36296
C         28.44913         7.79801         0.35304
C         29.67749         5.59407        -0.07503
C         29.66528         8.52721        -0.03323
C         28.43726        10.65810         0.28356
C         28.41643        12.06707         0.16439
C         29.66024         9.93621         0.02398
C         29.59345        12.77932        -0.10070
C         28.42169        14.92318         0.36262
C         28.35133        16.36199        -0.00668
C         29.47009        14.21276        -0.51690
C         29.65138        17.11094         0.07256
C         28.29606        19.19929        -0.34232
C         29.53349        18.54397        -0.39882
C         30.75555         1.97485        -0.53115
C         30.74188         3.44063        -0.86662
C         32.04763         4.15975        -0.66613
C         30.86397         6.27890        -0.30259
C         30.88083         7.78462        -0.52080
C         32.07198         5.50729        -0.51734
C         32.13270         8.52187        -0.14219
C         30.90252        10.64195        -0.09302
C         30.94748        12.14510         0.07438
C         32.11152         9.88996        -0.04068
C         31.96571        12.82161        -0.81379
C         30.77940        14.96141        -0.63689
C         30.81667        16.34988        -0.54703
C         31.90381        14.15196        -1.06366
C         31.97170        17.12041        -0.87738
C         30.70594        19.20846        -0.79196
C         31.91342        18.50562        -0.96487
O         16.77012        12.81408         1.57308
O          6.56836         5.82293         1.33746
O          1.91990         8.96996         1.73468
O         10.36857        16.87690        -1.59919
O         28.62318         7.08871         1.62766
O          4.08275        10.18277         2.10405
O          4.68174        13.80020        -1.48974
O         22.17581        13.73484         1.35108
O         18.44914        15.69077        -1.92961
O          9.41961         9.18538         1.98997
O          9.82875        18.27869         1.74530
H          9.75737        19.14800         2.19316
O         19.74144        12.36293        -1.98842
H         19.61204        11.39725        -2.10172
O         20.83600         6.41116         2.73306
H         20.59607         5.50795         3.03458
O          4.94257        13.32588         2.10797
H          5.36195        12.60246         2.62666
O          8.92579        10.39060        -1.35231
H          8.44690        11.06109        -1.88550
O         28.87536        14.22572        -1.85489
H         29.48972        13.75940        -2.46013
O          8.51369        14.88124        -1.95605
H          9.20330        15.53570        -2.23745
O         16.83526        13.60145        -1.95037
H         17.16528        14.28993        -2.57385
O          3.55640         2.34616         0.90323
H          3.55480         1.46498         1.33091
O         27.01474         8.69662        -1.32127
H         26.87206         7.82122        -1.73789
O         31.37821        12.41446         1.45995
H         30.69029        12.04934         2.05610
O         27.26255         9.76581         2.15788
H         27.17586        10.65197         2.56632
O         13.83401         7.81814         2.35570
H         13.06787         7.41572         2.81582
O         30.79553         7.88408        -2.02030
H         30.88169         8.83724        -2.24120
O         27.24054        17.13426         1.90059
H         28.12169        17.55358         2.07486
O          5.91516         7.92535        -1.62184
H          6.16213         8.83680        -1.88615
O          9.56245         5.08637         1.86787
H          8.63773         5.29077         2.12857
O          6.39442         3.78109        -2.48147
H          5.56606         3.45021        -2.91223
O         10.04922         4.95858        -1.76448
H          9.92066         4.24715        -2.42671
O         28.87362        14.79266         1.75295
H         28.21085        15.29079         2.28927
O         11.17777        11.00697         2.42388
H         10.68138        10.29095         2.88836
O         23.55967         6.41327         2.70312
H         22.64389         6.62874         3.02066
O          4.88441        17.17844         1.90538
H          4.03297        17.56177         2.20616
O         30.48375         3.51191        -2.32338
H         30.54411         4.45855        -2.57613
O         26.14871         3.23111         2.24287
H         26.14092         4.11783         2.66445
O          6.50330        10.78172         2.30407
H          5.75234        10.43137         2.84087
O         14.50991         8.34781        -1.19924
H         15.24131         8.80506        -1.66442
O          3.73089         3.34788        -2.62454
H          3.44724         4.18175        -3.05532
O         29.99368        17.22996         1.51579
H         30.07988        16.30065         1.84581
O         23.40116        14.77464        -1.95266
H         24.19123        15.23768        -2.30272
H          0.33618         1.54849        -1.41187
H          0.21209         3.97631        -0.89954
H          2.43528         0.29689        -1.01328
H          0.20113         5.95056        -0.97640
H          0.07538         8.20658        -0.06795
H          0.06725        10.17614         0.02313
H          0.22293        12.56895        -0.33024
H          0.12063        14.45974         0.18154
H          0.15943        16.92110         0.03706
H          1.42014        19.06258        -0.11749
H          4.95541         0.32471        -0.74444
H          3.55165        20.27719        -0.33799
H          7.44167         0.33430        -0.87807
H          6.01873        20.27153        -0.37699
H          9.90546         0.38903        -0.90318
H          8.46459        20.33053        -0.05930
H         12.34113         0.35311        -0.58901
H         11.05988        20.34095        -0.04369
H         14.81571         0.32542        -0.33762
H         13.53233        20.31707        -0.07117
H         17.29101         0.32115        -0.14302
H         16.00052        20.28914         0.00493
H         19.76775         0.33839        -0.03104
H         18.45967        20.26297         0.02057
H         22.21885         0.36073        -0.03103
H         20.93543        20.26537         0.11754
H         24.63964         0.36792        -0.23977
H         23.38805        20.27955         0.05732
H         27.12997         0.27761        -0.18394
H         25.84004        20.29254        -0.26119
H         29.60994         0.23946        -0.07197
H         28.25269        20.26443        -0.62324
H         31.69893         1.41997        -0.64592
H         32.98424         3.59979        -0.80740
H         33.03877         6.03181        -0.51488
H         33.08989         7.98671        -0.07616
H         33.05419        10.43133         0.12961
H         32.82594        12.23608        -1.17096
H         32.73617        14.63390        -1.59996
H         32.90771        16.61142        -1.14814
H         30.66890        20.28516        -1.01501
H         32.81489        19.06131        -1.26033
