         630
 CSIRO Nanostructure Databank - Neutral Graphene Oxide Data Set
C         23.42419        27.80094         2.88383
C         23.41966        29.15098         2.67816
C         23.10563        31.90391         1.56163
C         23.05487        33.28605         1.19686
C         22.89458        35.94298        -0.23567
C         22.87917        37.23595        -0.76211
C         22.93630        40.20023        -1.45858
C         22.99689        41.58457        -1.61135
C         23.06805        44.51352        -1.85536
C         23.05071        45.87111        -1.88042
C         25.02269        24.97013         1.05713
C         24.18171        25.65577         1.96686
C         25.76331        27.62128         1.96232
C         24.44169        26.97131         2.29514
C         25.56373        29.05108         1.51683
C         24.43806        29.77866         1.84982
C         25.43930        31.89240         0.88674
C         24.25952        31.16825         1.41265
C         25.49155        33.38278         1.06500
C         24.18487        34.06376         0.97263
C         25.05995        36.39167         0.59600
C         24.01244        35.45674         0.49636
C         25.21633        37.52521        -0.20519
C         24.04484        38.05712        -0.80930
C         25.39457        40.13929        -1.37434
C         24.08955        39.43427        -1.25108
C         25.43394        41.61451        -1.29492
C         24.21341        42.31722        -1.46828
C         25.43198        44.42164        -1.13013
C         24.22705        43.75447        -1.43916
C         25.39236        45.86785        -0.85728
C         24.13371        46.64180        -1.26131
C         25.44626        48.73435        -1.48090
C         24.28232        48.06905        -1.60273
C         28.04393        23.02658        -0.39948
C         28.01593        24.42933        -0.28537
C         26.16809        25.57988         0.55930
C         27.87536        27.42038         0.60046
C         26.65255        26.84178         0.99045
C         27.94972        28.84622         0.67161
C         26.59854        29.55244         0.54339
C         27.98351        31.68937         0.84634
C         26.65834        31.07962         0.56748
C         28.01175        33.18041         0.97381
C         26.75128        33.96260         1.00397
C         28.02929        35.96023         0.28882
C         26.98040        35.37446         0.96060
C         27.87132        37.25098        -0.43656
C         26.57296        37.98230        -0.64377
C         27.93321        40.16509        -0.85923
C         26.68290        39.40335        -1.12858
C         27.91537        41.57695        -0.92158
C         26.66606        42.29664        -1.10336
C         27.91728        44.44392        -0.87937
C         26.66728        43.72142        -1.02495
C         27.94759        45.85902        -0.84345
C         26.68414        46.61289        -0.71925
C         28.00476        48.74458        -1.28124
C         26.69531        48.11067        -0.98578
C         28.06827        50.09533        -1.64891
C         30.43081        23.08224        -0.01745
C         29.23697        22.35887        -0.23971
C         30.39764        24.50873         0.08512
C         29.14629        25.20023         0.01380
C         30.40879        27.38240         0.38663
C         29.08789        26.72698        -0.04532
C         30.43598        28.78810         0.55590
C         29.17709        29.52232         0.55771
C         30.43930        31.64801         0.61139
C         29.22661        30.94792         0.58235
C         30.45018        33.08872         0.51381
C         29.25755        33.83875         0.55751
C         30.44734        35.83264        -0.20571
C         29.24314        35.19014         0.13466
C         30.44139        37.24451        -0.65106
C         29.14131        37.98722        -0.77568
C         30.39230        40.15266        -0.64936
C         29.15258        39.46644        -0.71721
C         30.38367        41.57698        -0.66123
C         29.14974        42.28808        -0.78514
C         30.38084        44.42931        -0.66394
C         29.14853        43.72114        -0.79967
C         30.40404        45.86079        -0.76905
C         29.18270        46.57354        -0.88245
C         30.46507        48.67133        -1.26901
C         29.20467        48.00435        -1.10849
C         30.49460        50.08396        -1.51749
C         29.29098        50.75708        -1.75123
C         32.92631        20.27211        -0.11901
C         31.73001        20.94938        -0.02235
C         32.90463        23.08824         0.02013
C         31.68662        22.36667         0.00692
C         32.87546        24.52117         0.13615
C         31.64471        25.22866         0.20334
C         32.88172        27.35851         0.53402
C         31.63438        26.66288         0.36387
C         32.91158        28.77991         0.75363
C         31.66459        29.49663         0.72093
C         32.88889        31.66238         0.82007
C         31.68329        30.93711         0.72409
C         32.91297        33.06095         0.51552
C         31.68152        33.76772         0.30994
C         32.90347        35.88528        -0.13903
C         31.67311        35.15456        -0.02315
C         32.89644        37.30243        -0.33359
C         31.67832        38.02577        -0.49115
C         32.89073        40.15976        -0.45024
C         31.65053        39.42901        -0.54862
C         32.86528        41.57797        -0.38344
C         31.62080        42.29878        -0.50017
C         32.80399        44.47740        -0.03829
C         31.58907        43.70716        -0.46614
C         32.88673        45.86687        -0.62993
C         31.66925        46.56201        -0.85981
C         32.97719        48.61299        -1.56547
C         31.68004        47.94456        -1.17210
C         32.97973        50.11225        -1.38531
C         31.75916        50.81215        -1.45729
C         32.96959        52.92160        -1.34529
C         31.77568        52.22597        -1.39913
C         35.44275        18.85492        -0.52420
C         35.40793        20.26349        -0.36426
C         34.15807        20.96715        -0.19077
C         35.38429        23.10757        -0.08061
C         34.14730        22.38594        -0.08408
C         35.36141        24.52517         0.10234
C         34.11839        25.22352         0.20922
C         35.34319        27.31189         0.62946
C         34.10774        26.63220         0.43707
C         35.32437        28.67012         1.07208
C         34.13689        29.45564         1.03842
C         35.37366        31.75998         1.06022
C         34.10787        30.96683         1.39143
C         35.37640        33.09970         0.57363
C         34.12589        33.79732         0.38975
C         35.35273        35.92539        -0.03015
C         34.12348        35.19343         0.08126
C         35.35041        37.27815        -0.32763
C         34.12643        38.01656        -0.39739
C         35.39264        40.14426        -0.33654
C         34.13052        39.43930        -0.42933
C         35.37330        41.58138        -0.16870
C         34.10486        42.31028        -0.21925
C         35.30082        44.47318         0.06592
C         34.07752        43.69571        -0.15592
C         35.34972        45.90124        -0.30722
C         34.14241        46.56599        -0.65487
C         35.41174        48.66941        -0.88838
C         34.19644        47.95125        -0.97904
C         35.45241        50.08536        -1.13463
C         34.20917        50.81500        -1.31035
C         35.46055        52.97103        -1.38622
C         34.20742        52.24336        -1.32520
C         35.55152        54.35283        -1.39730
C         37.86845        18.87481        -0.75251
C         36.63140        18.18360        -0.71487
C         37.86544        20.28614        -0.58277
C         36.63179        20.98550        -0.39523
C         37.85333        23.13159        -0.20901
C         36.62174        22.41455        -0.23038
C         37.83706        24.54771         0.02742
C         36.59669        25.23491         0.19293
C         37.83929        27.32740         0.63385
C         36.59567        26.63394         0.47914
C         37.82732        28.65756         1.15655
C         36.59202        29.13950         1.53951
C         37.86163        31.73280         0.99889
C         36.61276        31.28339         1.47854
C         37.84810        33.08820         0.53320
C         36.60816        33.77513         0.43307
C         37.88480        35.92086        -0.02654
C         36.61688        35.27621         0.46367
C         37.87587        37.24855        -0.34181
C         36.61599        37.98567        -0.72688
C         37.87564        40.14394        -0.28334
C         36.61403        39.45693        -0.37647
C         37.85450        41.57888        -0.04423
C         36.57565        42.25420         0.01110
C         37.87533        44.41402        -0.13551
C         36.58333        43.71677         0.20488
C         37.81737        45.91443         0.00814
C         36.58982        46.59298        -0.28802
C         37.86923        48.70650        -0.48949
C         36.62825        47.99791        -0.54480
C         37.90876        50.10107        -0.81818
C         36.69351        50.75868        -1.14235
C         38.02262        52.93210        -1.50404
C         36.69738        52.18591        -1.52392
C         38.01266        54.39573        -1.32837
C         36.79311        55.04533        -1.36283
C         40.35143        16.11199        -1.36334
C         39.15699        16.76875        -1.14775
C         40.33603        18.91050        -1.01498
C         39.11600        18.17498        -0.96577
C         40.33389        20.33823        -0.80308
C         39.10742        21.01074        -0.58562
C         40.32707        23.12416        -0.33196
C         39.09320        22.42671        -0.36813
C         40.30181        24.58666        -0.24602
C         39.05436        25.28233         0.08455
C         40.32339        27.36581         0.66675
C         39.07779        26.64966         0.43207
C         40.33212        28.74222         1.01022
C         39.08866        29.45480         1.50768
C         40.28376        31.57357         0.79026
C         39.08098        30.94524         1.07411
C         40.33335        32.95927         0.18606
C         39.07986        33.77080         0.32789
C         40.37009        35.83384         0.05935
C         39.12367        35.16494         0.09573
C         40.44283        37.26052        -0.27492
C         39.13357        37.99429        -0.52252
C         40.39096        40.14814        -0.28285
C         39.09486        39.45230        -0.33864
C         40.33870        41.65648        -0.02120
C         39.03439        42.27675         0.19227
C         40.29116        44.44613         0.56888
C         38.98250        43.71287         0.66644
C         40.20057        45.93670         0.80767
C         39.00174        46.62835         0.17612
C         40.29763        48.77182         0.08256
C         39.05581        48.02871        -0.07834
C         40.36960        50.16119        -0.30679
C         39.17651        50.82164        -0.78412
C         40.49206        52.90353        -1.23231
C         39.22406        52.17706        -1.11915
C         40.49032        54.36859        -1.21352
C         39.29244        55.09061        -1.18724
C         40.55312        57.16488        -0.83190
C         39.34114        56.51304        -1.04843
C         42.82237        16.14602        -1.60389
C         41.56870        16.83554        -1.42294
C         42.82541        19.01289        -1.49408
C         41.55619        18.23271        -1.25028
C         42.82575        20.37958        -0.86420
C         41.58253        21.04758        -0.71260
C         42.81438        23.12609        -0.15522
C         41.56583        22.44810        -0.43107
C         42.79985        24.46474         0.27121
C         41.61961        25.29517         0.08159
C         42.77294        27.33004         0.88547
C         41.56701        26.67548         0.59698
C         42.79860        28.74721         0.96996
C         41.55227        29.44938         0.99899
C         42.77240        31.58148         0.84295
C         41.55543        30.88905         0.90830
C         42.78713        33.03624         0.74058
C         41.57364        33.73542         0.54668
C         42.78752        35.87656         0.60016
C         41.57553        35.14239         0.40879
C         42.79551        37.31183         0.55082
C         41.63002        38.02690         0.16391
C         42.75911        40.15012         0.63711
C         41.61837        39.42805         0.15114
C         42.68173        41.59777         0.81165
C         41.53898        42.31451         0.53471
C         42.74475        44.47500         0.80676
C         41.48907        43.76865         0.66044
C         42.76856        45.93258         0.60432
C         41.47821        46.65634         0.46735
C         42.66409        48.88560         0.96044
C         41.44811        48.12780         0.52055
C         42.78612        50.22950         0.28597
C         41.63423        50.82479        -0.26517
C         42.98631        52.97878        -0.54533
C         41.77156        52.17644        -0.84285
C         43.02516        54.31234        -0.85901
C         41.81738        55.06580        -1.39441
C         42.97595        57.12516        -0.44480
C         41.77550        56.48906        -0.88966
C         44.01744        16.80475        -1.47785
C         45.28392        18.87971        -0.96361
C         44.08145        18.21540        -1.24605
C         45.30568        20.29108        -0.63175
C         44.04836        21.02595        -0.56838
C         45.28578        23.05956         0.16764
C         44.04870        22.39103        -0.16464
C         45.27365        24.36723         0.64893
C         44.00077        25.05479         0.85034
C         45.30032        27.29081         1.02242
C         44.01723        26.57757         1.10647
C         45.28468        28.71299         1.01807
C         44.03955        29.43824         1.04188
C         45.23567        31.57939         1.07322
C         44.03365        30.87787         0.99105
C         45.29351        33.01563         0.62957
C         44.00002        33.75502         0.81306
C         45.22926        35.90638         1.00594
C         44.00005        35.17164         0.81417
C         45.21878        37.30752         1.07278
C         43.98551        38.02985         0.86431
C         45.14235        40.09449         1.63636
C         43.94129        39.44666         0.95848
C         45.14941        41.61830         1.59502
C         43.86997        42.34174         1.29523
C         45.16197        44.50062         1.22081
C         43.92252        43.79532         1.03403
C         45.14427        45.93056         1.25977
C         43.98333        46.67574         0.98714
C         45.14587        48.83127         1.15687
C         43.96033        48.09778         0.98626
C         45.22136        50.22863         0.84117
C         44.04245        50.91781         0.35699
C         45.38438        52.98080         0.12580
C         44.14620        52.27840        -0.02445
C         45.49125        54.34208        -0.26884
C         44.33394        55.07214        -0.91315
C         44.16862        56.47461        -0.37189
C         47.71579        18.80049        -0.73500
C         46.53360        18.17052        -0.97737
C         47.76707        20.19357        -0.38750
C         46.51737        20.92331        -0.32096
C         47.74622        22.97339         0.29131
C         46.54676        22.33273         0.05278
C         47.81061        24.37363         0.76536
C         46.49747        25.10036         1.02990
C         47.76177        27.27993         0.91991
C         46.52200        26.58400         1.00079
C         47.76163        28.71403         0.97936
C         46.52779        29.39985         1.07539
C         47.80890        31.61374         1.27783
C         46.49180        30.85213         1.30740
C         47.78298        33.08047         1.08421
C         46.51298        33.79010         1.05481
C         47.74960        35.89858         1.44344
C         46.46290        35.16402         1.14121
C         47.70740        37.38050         1.14438
C         46.47310        38.05499         1.16151
C         47.64711        40.21575         1.17206
C         46.45106        39.47041         1.21638
C         47.63280        41.66411         1.24182
C         46.41847        42.36102         1.39769
C         47.63083        44.51399         1.39371
C         46.38534        43.78577         1.37050
C         47.64296        45.91868         1.58906
C         46.35138        46.62144         1.72230
C         47.63250        48.85130         1.64758
C         46.34646        48.15510         1.65736
C         47.67243        50.20102         1.34650
C         46.46089        50.90792         0.95801
C         47.75168        53.01974         0.82894
C         46.53389        52.30162         0.64226
C         47.82738        54.35260         0.40639
C         46.71902        54.99194        -0.15916
C         50.25411        20.16636        -0.30273
C         48.99419        20.82219        -0.14119
C         50.25065        23.00250         0.01495
C         49.03404        22.21085         0.43878
C         50.19452        24.50701        -0.15128
C         49.00108        25.18424         0.48501
C         50.24034        27.33211         0.47975
C         49.00280        26.56547         0.66291
C         50.22816        28.75596         0.54206
C         49.00420        29.46042         0.83224
C         50.21632        31.61001         0.63130
C         49.02303        30.86725         0.89968
C         50.21460        33.04650         0.71077
C         48.97007        33.75444         0.91144
C         50.19431        35.96117         1.04485
C         48.91195        35.24805         0.69120
C         50.18792        37.43470         0.94598
C         48.92134        38.10815         1.03507
C         50.12512        40.26291         0.97228
C         48.89401        39.53376         1.02277
C         50.08893        41.68270         1.04788
C         48.87430        42.37962         1.14250
C         50.06106        44.57863         1.14958
C         48.86453        43.83136         1.24112
C         50.08329        45.96920         1.39358
C         48.85173        46.62638         1.66256
C         50.15260        48.78736         2.18617
C         48.84179        48.06797         2.01384
C         50.05706        50.28752         2.09872
C         48.90539        50.94273         1.58058
C         49.96208        53.11649         1.97178
C         48.89606        52.35734         1.44920
C         51.42455        20.87550        -0.29158
C         52.66570        23.04858        -0.47061
C         51.42203        22.32156        -0.23769
C         52.75346        24.40677         0.10943
C         51.47717        25.17496         0.31085
C         52.68390        27.38003         0.14721
C         51.47861        26.66130         0.31709
C         52.66289        28.79648         0.07669
C         51.43751        29.48701         0.31517
C         52.62270        31.66799         0.08795
C         51.42745        30.92520         0.34086
C         52.61044        33.09393         0.16292
C         51.40984        33.76273         0.51827
C         52.65004        35.99830         0.42324
C         51.47102        35.21283         0.81085
C         52.63279        37.41172         0.51561
C         51.39194        38.13537         0.81319
C         52.58646        40.31857         0.64682
C         51.37670        39.57487         0.83532
C         52.59166        41.71502         0.66914
C         51.38367        42.44727         1.20691
C         52.55140        44.62386         0.71993
C         51.26766        43.84744         0.62099
C         52.52910        45.99290         0.92175
C         51.34200        46.71894         1.36451
C         52.70168        48.72433         1.89093
C         51.41227        48.05025         1.81450
C         52.97999        49.87855         2.60102
C         51.03173        51.09367         2.69876
C         51.00109        52.49340         2.65032
C         54.94558        23.26118        -1.33548
C         53.73601        22.52261        -1.14803
C         55.12736        24.52393        -0.81640
C         54.03680        25.16223        -0.04528
C         55.11757        27.41531        -0.60299
C         53.98348        26.67560        -0.00274
C         55.06080        28.84981        -0.52866
C         53.88744        29.53545        -0.18912
C         54.99267        31.75631        -0.50641
C         53.85654        30.99046        -0.18957
C         54.95913        33.18926        -0.56208
C         53.78570        33.86363        -0.13433
C         54.95488        36.03586        -0.41638
C         53.79282        35.30098        -0.04679
C         54.95672        37.46084        -0.29062
C         53.80942        38.13376         0.19244
C         54.97887        40.35458        -0.15492
C         53.90835        39.58789         0.57751
C         54.93885        41.77548        -0.12659
C         53.75964        42.47404         0.33371
C         54.96307        44.62323         0.10084
C         53.75996        43.90260         0.37486
C         55.01078        46.04694         0.26949
C         53.75563        46.75776         0.62541
C         55.26283        48.66203         1.40730
C         53.84365        48.16845         1.11525
C         55.27690        50.11530         1.79306
C         54.22021        50.61330         2.47044
C         57.51996        24.67390        -1.44232
C         56.32239        25.30312        -1.09893
C         57.35057        27.50753        -1.75098
C         56.24654        26.74447        -1.05980
C         57.49065        28.93406        -1.28750
C         56.33648        29.57215        -0.66145
C         57.41766        31.79986        -1.27663
C         56.30318        31.10503        -0.64970
C         57.20728        33.22143        -1.72383
C         56.09663        33.93503        -0.99468
C         57.26792        36.09777        -1.32112
C         56.10698        35.34053        -0.91559
C         57.25877        37.52366        -1.21956
C         56.11927        38.21121        -0.70005
C         57.23258        40.36667        -1.16035
C         56.10261        39.64374        -0.66197
C         57.17003        41.83070        -1.22616
C         56.05663        42.53241        -0.57694
C         57.34899        44.66259        -0.58286
C         56.11655        43.93432        -0.38889
C         57.40127        46.04653        -0.24696
C         56.20162        46.75117         0.10490
C         57.63137        48.79358         0.53944
C         56.24268        48.26854         0.27194
C         58.69802        25.40808        -1.72111
C         59.84916        27.56837        -2.04613
C         58.67373        26.78701        -1.79596
C         59.82165        28.93587        -2.00593
C         58.63534        29.65855        -1.58118
C         59.72692        31.89293        -2.02016
C         58.59972        31.12163        -1.58046
C         59.67915        33.27780        -2.06247
C         58.49220        33.99659        -1.81228
C         59.57899        36.19535        -2.15017
C         58.44630        35.42136        -1.76644
C         59.55623        37.56759        -2.09610
C         58.41631        38.26664        -1.61780
C         59.63251        40.44812        -1.72116
C         58.40689        39.69998        -1.55167
C         59.69790        41.79558        -1.57980
C         58.48292        42.60729        -1.46957
C         59.76024        44.70288        -0.99771
C         58.54375        44.00878        -0.99998
C         59.82324        46.03603        -0.59078
C         58.65891        46.71744        -0.22546
C         58.73592        48.08804         0.24560
O         44.30115        42.11113         2.69937
O         47.26995        24.52249         2.13483
O         41.39679        52.30129        -2.25904
O         40.57724        41.11601        -1.36879
O         52.05374        50.49137         3.44904
O         53.48925        47.91816        -0.28578
O         26.04274        36.19903         1.56803
O         26.76190        24.97774        -0.54943
O         36.59178        30.23459         2.41390
O         43.88364        25.62071         2.21076
O         56.68159        30.33448         0.54395
O         42.18894        46.24338        -0.75454
O         29.80019        37.45094        -1.97011
O         28.08923        32.32412         2.17804
O         49.41686        48.29693         3.35911
O         46.14736        47.41524         2.92583
O         37.42796        52.46298        -2.77075
O         35.92354        44.20272         1.40492
O         26.21317        39.59206        -2.49965
O         41.09039        25.23363        -1.29993
O         25.87425        31.62378        -0.53984
O         54.42944        25.87649         1.15794
O         39.98716        37.57189        -1.65139
O         57.52092        42.38752        -2.54318
O         26.65903        47.57675         0.37973
O         27.07263        37.03828        -1.66511
O         47.20518        31.22116         2.55861
O         52.13045        24.52880         1.43381
O         24.39679        46.26510         0.12864
O         50.94887        35.47775         2.18345
O         36.61216        37.94490        -2.20031
H         37.47033        38.30867        -2.50912
O         51.60551        42.61107         2.63823
H         51.74243        41.72284         3.02915
O         44.68556        55.21398        -2.32789
H         43.84105        55.40640        -2.81045
O         51.03526        43.66092        -0.81034
H         51.02738        44.54398        -1.23566
O         42.83336        19.27603        -2.95695
H         42.80566        18.40184        -3.40207
O         28.97965        27.05227        -1.46969
H         29.73285        26.62906        -1.93255
O         42.41113        49.19776         2.39288
H         43.24071        49.57100         2.76201
O         49.17109        22.00996         1.89781
H         49.00576        22.87329         2.33690
O         56.90793        27.61358        -3.16689
H         57.66459        27.97853        -3.67433
O         36.62272        35.59260         1.91752
H         35.85147        35.13572         2.31771
O         50.12427        24.77066        -1.59573
H         49.32901        24.31968        -1.94934
O         40.02870        46.11168         2.24707
H         39.26034        45.55017         2.51211
O         45.46283        32.91253        -0.85377
H         44.62423        32.55014        -1.21511
O         32.63317        44.68814         1.42597
H         33.52080        44.88007         1.80123
O         39.20976        29.45536         2.96085
H         38.38201        29.85607         3.31152
O         26.12184        29.13098        -0.76501
H         25.68923        29.92038        -1.17411
O         33.94117        31.02161         2.84538
H         34.75928        30.63538         3.23384
O         55.71552        47.92296         2.58075
H         55.22739        48.25497         3.36349
O         55.83543        48.89904        -0.96189
H         54.91631        48.58938        -1.15899
O         42.01774        55.11938        -2.86828
H         41.88474        54.19329        -3.18359
O         38.11395        44.16060        -1.54336
H         38.99052        44.52789        -1.78526
O         48.72541        35.46639        -0.73138
H         47.90540        35.00148        -1.00478
O         38.58276        43.75001         2.07059
H         39.21740        43.20679         2.58338
O         45.02022        39.70375         3.04166
H         44.52215        40.43069         3.48682
O         54.38292        39.55306         1.98950
H         53.81309        38.91425         2.47018
O         40.46443        32.70279        -1.27987
H         40.42369        33.57577        -1.72771
O         26.54200        27.67534         3.21308
H         25.98725        28.13463         3.87929
O         56.71890        33.11794        -3.13443
H         57.46661        32.77148        -3.66784
O         33.07739        48.39300        -3.03173
H         33.91228        48.81382        -3.33025
O         48.02679        35.76658         2.85983
H         47.30101        36.19745         3.35717
H         22.57599        27.31702         3.39181
H         22.59661        29.76216         3.07208
H         22.18178        31.43322         1.92645
H         22.06520        33.76364         1.15859
H         22.00665        35.30761        -0.36679
H         21.95945        37.58994        -1.24914
H         21.95135        39.71158        -1.45201
H         22.05289        42.12790        -1.74690
H         22.21462        43.97059        -2.28367
H         22.21846        46.41170        -2.35484
H         24.71267        23.99835         0.65204
H         23.23798        25.18859         2.28546
H         25.48248        49.78276        -1.80891
H         23.40684        48.58041        -2.03197
H         27.11488        22.48869        -0.62616
H         27.14906        50.67378        -1.80647
H         29.24942        21.26713        -0.33713
H         29.28576        51.82652        -1.99789
H         32.90428        19.17529        -0.14536
H         30.80625        20.36026         0.03161
H         32.94300        54.01912        -1.33085
H         30.83610        52.79343        -1.40519
H         34.51266        18.27269        -0.50739
H         34.63902        54.96363        -1.36156
H         36.60185        17.09366        -0.84019
H         36.75047        56.14123        -1.30062
H         40.36809        15.02049        -1.49328
H         38.23142        16.17957        -1.11597
H         40.54974        58.23262        -0.56519
H         38.41148        57.09494        -1.01851
H         42.80586        15.05778        -1.75854
H         42.90158        58.16860        -0.09918
H         44.94142        16.21170        -1.50934
H         45.05371        57.00716         0.00534
H         48.64374        18.21637        -0.77873
H         46.55060        17.10023        -1.21852
H         48.77086        54.90852         0.48855
H         46.82727        56.02324        -0.52140
H         50.29684        19.08298        -0.47974
H         49.94197        54.21249         1.91453
H         52.38206        20.35005        -0.40836
H         51.78646        53.07715         3.14678
H         55.73821        22.79960        -1.94041
H         53.66773        21.52217        -1.59731
H         56.18160        50.72223         1.65423
H         54.24320        51.63153         2.88445
H         57.58005        23.57702        -1.42568
H         57.73284        49.83552         0.87474
H         59.64634        24.86889        -1.86390
H         60.79443        27.04397        -2.25199
H         60.74711        29.48928        -2.21119
H         60.68029        31.39699        -2.24166
H         60.61436        33.81730        -2.26658
H         60.47992        35.69791        -2.53188
H         60.43791        38.12033        -2.44393
H         60.57446        39.89640        -1.83819
H         60.68154        42.28344        -1.54454
H         60.68313        44.20452        -1.32217
H         60.78940        46.55956        -0.57253
H         59.73479        48.53066         0.37786
