         407
 CSIRO Nanostructure Databank - Neutral Graphene Oxide Data Set
C         28.33610        27.44354         1.43511
C         28.07538        28.77346         0.89881
C         27.10526        29.67647         1.51656
C         28.09926        31.63837         0.38762
C         27.07589        30.99299         1.18895
C         27.95907        33.02279         0.03157
C         26.79398        33.76886         0.27628
C         27.81940        35.91838        -0.37347
C         26.72048        35.14618         0.07132
C         27.80302        37.33197        -0.38185
C         26.60835        38.08190        -0.13793
C         27.79230        40.26833        -0.05482
C         26.58040        39.44459        -0.03526
C         27.82141        41.61590         0.63280
C         26.67780        42.20277         1.37304
C         27.96480        44.24339         1.82033
C         26.78032        43.43581         1.95103
C         28.05380        45.57458         2.21843
C         30.53508        27.34681         0.33544
C         29.43490        26.73888         1.03999
C         30.51943        28.70888         0.06129
C         29.27605        29.46984         0.14317
C         30.44317        31.62736        -0.46317
C         29.27428        30.93760         0.04674
C         30.35339        32.97665        -0.78944
C         29.05737        33.66911        -0.69858
C         30.28282        35.94478        -1.10339
C         28.99281        35.19266        -0.91280
C         30.33597        37.34344        -0.61562
C         29.05577        38.07781        -0.64903
C         30.39272        40.15596         0.03201
C         29.09326        39.57073        -0.36644
C         30.40155        41.53804         0.46504
C         29.16684        42.11691         1.12280
C         30.41391        44.40018         1.10311
C         29.12992        43.63314         1.14980
C         30.45082        45.77972         1.63269
C         29.24254        46.32728         2.09920
C         33.06658        24.45692         0.15196
C         31.89917        25.11325         0.37666
C         32.98181        27.21649        -0.47904
C         31.71667        26.51111        -0.05015
C         33.01942        28.70655        -0.40170
C         31.76364        29.47675        -0.19524
C         32.84507        31.54244        -1.07190
C         31.70662        30.90598        -0.62865
C         32.80214        32.95533        -1.51525
C         31.49856        33.69063        -1.39857
C         32.85183        35.83382        -0.95611
C         31.56137        35.19582        -1.34245
C         32.79499        37.18446        -0.35542
C         31.53496        37.98594        -0.40781
C         32.85847        40.03453         0.16386
C         31.57376        39.40258        -0.08320
C         32.85299        41.47166         0.51419
C         31.58980        42.23977         0.52910
C         32.85279        44.34972         0.82406
C         31.67412        43.65789         0.86721
C         32.98978        45.73051         1.41522
C         31.68255        46.48697         1.55267
C         32.92922        48.58338         1.42996
C         31.76331        47.88656         1.70515
C         35.43460        22.94413        -0.81044
C         35.48418        24.37199        -0.55177
C         34.27772        25.10816        -0.31759
C         35.48742        27.22547        -0.70416
C         34.27876        26.51015        -0.46963
C         35.48710        28.67078        -0.91950
C         34.18263        29.34119        -1.08502
C         35.40103        31.54414        -1.40421
C         34.12014        30.81640        -1.34986
C         35.39038        33.01151        -1.54635
C         34.08285        33.75973        -1.58116
C         35.33396        35.84631        -0.88751
C         34.06607        35.17452        -1.09626
C         35.36817        37.22799        -0.53053
C         34.11392        37.89646        -0.09877
C         35.35202        40.08014         0.26237
C         34.06471        39.36944         0.07845
C         35.39047        41.54610         0.19142
C         34.13661        42.23926         0.51216
C         35.34972        44.42337         0.30665
C         34.04030        43.70161         0.16881
C         35.32183        45.83748         0.40107
C         34.12395        46.53578         0.80503
C         35.24078        48.72210         0.47307
C         34.09991        47.93636         0.91793
C         35.30115        50.10432         0.54132
C         37.78584        22.89576        -1.57666
C         36.45809        22.28308        -1.40774
C         37.94095        24.32359        -1.05067
C         36.69416        25.07452        -0.76335
C         37.94507        27.25172        -1.00563
C         36.68605        26.49120        -0.84292
C         37.94407        28.76143        -1.02016
C         36.63543        29.42529        -1.07986
C         37.87045        31.59006        -1.35232
C         36.60915        30.86260        -1.31009
C         37.85645        33.02509        -1.26144
C         36.63142        33.74004        -1.23568
C         37.82397        35.86176        -0.97102
C         36.58624        35.14659        -1.05015
C         37.81928        37.28525        -0.83669
C         36.57929        37.94292        -0.56375
C         37.80516        40.17790        -0.46157
C         36.64823        39.35246        -0.11364
C         37.79379        41.56058        -0.29066
C         36.55700        42.26233         0.00114
C         37.75696        44.45548        -0.14264
C         36.54843        43.72745         0.04975
C         37.72404        45.88176        -0.17542
C         36.50471        46.55357         0.07043
C         37.68409        48.79751        -0.35864
C         36.39196        48.00849        -0.09800
C         37.70416        50.22571        -0.00493
C         36.49926        50.83145         0.31281
C         39.11780        22.11708         1.91575
C         38.22315        22.46613         0.96321
C         40.12244        23.20493        -0.57064
C         38.61018        23.12908        -0.30631
C         40.35434        24.45023        -1.39079
C         39.07983        25.09239        -1.67255
C         40.37429        27.33765        -1.73988
C         39.10389        26.60903        -1.66172
C         40.35973        28.73968        -1.67547
C         39.15253        29.47318        -1.46874
C         40.35151        31.63929        -1.40424
C         39.11114        30.89985        -1.44700
C         40.33327        33.05280        -1.22747
C         39.08755        33.74934        -1.17734
C         40.29788        35.89683        -0.96115
C         39.06762        35.16969        -1.05073
C         40.27862        37.32753        -0.88434
C         39.04028        38.01258        -0.86707
C         40.28656        40.20237        -0.66197
C         39.00974        39.50897        -1.07140
C         40.25917        41.60425        -0.46763
C         39.01499        42.32391        -0.40512
C         40.22409        44.47387        -0.37252
C         39.00481        43.74239        -0.31706
C         40.21900        45.91929        -0.45287
C         38.95106        46.64239        -0.39818
C         40.16140        48.82488        -0.64805
C         38.94030        48.02985        -0.42338
C         40.18471        50.25488        -0.26791
C         38.97769        50.93837         0.00522
C         40.21951        53.02297         0.23779
C         39.02471        52.33604         0.25918
C         41.60582        22.09184         2.74227
C         40.51501        22.62803         1.91161
C         42.38996        23.62647         0.41868
C         40.95877        23.33089         0.67490
C         42.65400        24.56535        -0.60202
C         41.55663        25.13154        -1.34910
C         42.95089        27.25187        -1.83314
C         41.61872        26.52849        -1.88113
C         42.92704        28.75626        -1.79950
C         41.62059        29.51164        -1.79603
C         42.79210        31.65119        -1.20210
C         41.59446        30.95374        -1.42392
C         42.79276        33.06341        -1.03738
C         41.55913        33.77215        -1.09052
C         42.76690        35.91148        -0.81002
C         41.54074        35.19827        -0.95750
C         42.74905        37.34068        -0.71027
C         41.52088        38.04714        -0.77311
C         42.72480        40.18289        -0.36898
C         41.50465        39.48346        -0.62219
C         42.68625        41.58655        -0.16367
C         41.47976        42.31219        -0.25423
C         42.68107        44.46583        -0.28400
C         41.47189        43.76311        -0.26899
C         42.69450        45.89144        -0.61095
C         41.42059        46.61619        -0.57150
C         42.73593        48.81749        -0.45841
C         41.48378        48.07639        -0.75657
C         42.69605        50.23207        -0.29915
C         41.43424        50.93599        -0.21443
C         42.68304        53.04450         0.07763
C         41.44259        52.33985         0.02607
C         42.91606        22.34587         2.45028
C         44.75586        23.46899         1.11398
C         43.36184        23.14866         1.32880
C         45.09797        24.47347         0.08597
C         44.00815        25.11143        -0.73977
C         45.36180        27.31318        -0.88284
C         44.17221        26.52329        -1.31939
C         45.38644        28.69231        -1.06137
C         44.10149        29.42750        -1.16445
C         45.30407        31.64411        -0.72879
C         44.04025        30.89780        -0.92405
C         45.25759        33.06883        -0.64258
C         44.02217        33.77532        -0.80203
C         45.23136        35.91073        -0.53446
C         44.00413        35.19605        -0.71669
C         45.22156        37.33923        -0.46060
C         43.98582        38.05023        -0.52655
C         45.20823        40.14059        -0.13864
C         43.97835        39.46259        -0.34391
C         45.20651        41.56128         0.23554
C         43.90831        42.29691         0.24102
C         45.22705        44.50006        -0.09433
C         43.92851        43.81292         0.11543
C         45.24447        45.93726        -0.19119
C         43.99698        46.66269        -0.50850
C         45.16164        48.82859        -0.08041
C         43.95649        48.13159        -0.31382
C         45.16638        50.24081        -0.06708
C         43.91996        50.95194        -0.14462
C         43.87549        52.37541        -0.00864
C         47.11918        23.43927         1.82388
C         45.79605        22.92814         1.86798
C         47.43353        24.64160         1.21721
C         46.42385        25.24991         0.29372
C         47.21668        27.59281         0.61530
C         46.38883        26.68571        -0.07937
C         47.57416        28.85685         0.14291
C         46.65872        29.48395        -0.88056
C         47.69204        31.64207        -0.16604
C         46.49822        30.95388        -0.55242
C         47.68321        33.06713        -0.15591
C         46.47012        33.77715        -0.40953
C         47.68778        35.91453        -0.23042
C         46.45945        35.20592        -0.39109
C         47.69218        37.33770        -0.24954
C         46.45387        38.04548        -0.32400
C         47.70229        40.18802        -0.20424
C         46.44996        39.46695        -0.20817
C         47.73278        41.60846        -0.25616
C         46.49587        42.34698         0.06959
C         47.64396        44.52475        -0.50980
C         46.41269        43.79672        -0.15798
C         47.68819        45.96354        -0.20924
C         46.44377        46.63711        -0.07575
C         47.70667        48.81599        -0.00832
C         46.42377        48.09026         0.31229
C         47.63641        50.23445        -0.03409
C         46.43662        50.91594        -0.00466
C         50.00623        24.48408         1.05393
C         48.79942        25.19394         1.24859
C         50.05652        27.34749         1.06244
C         48.91787        26.58157         1.38116
C         50.00284        28.78278         0.85066
C         48.80334        29.50286         0.47641
C         50.07703        31.63361         0.50956
C         48.87226        30.92183         0.22646
C         50.10286        33.07996         0.38545
C         48.89908        33.78175         0.07149
C         50.14008        35.91768         0.06823
C         48.91016        35.20379        -0.02987
C         50.15629        37.33980        -0.04613
C         48.92670        38.04873        -0.17290
C         50.17576        40.18207        -0.25471
C         48.93352        39.47618        -0.22603
C         50.18351        41.60313        -0.38008
C         48.94456        42.29764        -0.40989
C         50.20027        44.50507        -0.42087
C         48.94795        43.76068        -0.61660
C         50.17310        45.92109        -0.28434
C         48.92086        46.64805        -0.18701
C         50.18961        48.75554        -0.06361
C         48.92147        48.09192        -0.08050
C         51.20494        25.18587         0.96295
C         52.51656        27.33682         0.85166
C         51.27004        26.60612         0.93979
C         52.49760        28.75392         0.90022
C         51.24416        29.47842         0.84662
C         52.50352        31.61246         1.10427
C         51.25216        30.90268         0.79523
C         52.52857        33.12964         0.97233
C         51.30392        33.80833         0.53148
C         52.60188        35.92072         0.34781
C         51.35546        35.21117         0.30351
C         52.62271        37.32898         0.15613
C         51.39606        38.04439        -0.00777
C         52.64103        40.17789        -0.20185
C         51.40722        39.46633        -0.15152
C         52.62965        41.58605        -0.41318
C         51.42434        42.32175        -0.46163
C         52.63704        44.51237        -0.40054
C         51.42129        43.78114        -0.45270
C         52.64847        45.91447        -0.20213
C         51.40765        46.63207        -0.16901
C         51.36989        48.05822        -0.07123
C         54.95766        27.33448         0.76860
C         53.76593        26.65205         0.77213
C         54.97606        28.75559         0.84762
C         53.74562        29.47115         0.90354
C         55.00098        31.59865         0.98440
C         53.78138        30.89173         0.99094
C         55.02201        33.06363         0.91127
C         53.82470        33.80019         0.78420
C         55.07712        35.89847         0.50488
C         53.83699        35.20166         0.53841
C         55.09286        37.33346         0.31084
C         53.87043        38.04618         0.14057
C         55.13182        40.16306        -0.06912
C         53.88645        39.46341        -0.05771
C         55.17230        41.59117        -0.30578
C         53.91374        42.26905        -0.63209
C         55.16735        44.49642        -0.29925
C         53.91111        43.81879        -0.62733
C         55.11018        45.90149        -0.04281
C         53.91811        46.57966        -0.04217
C         56.19971        29.47387         0.87729
C         56.21134        30.85023         0.93750
C         56.24357        33.78194         0.86016
C         56.26747        35.15259         0.68426
C         56.30794        38.05796         0.29930
C         56.32523        39.42815         0.12331
C         56.34495        42.34598        -0.25235
C         56.34658        43.75672        -0.24746
O         52.40122        32.47812         2.29013
O         31.93782        33.14607        -2.68272
O         29.52865        44.28429        -0.08824
O         38.26149        27.98996         0.21574
O         48.20431        44.16302        -1.83163
O         53.95075        43.04691        -1.86942
O         46.24167        24.25022        -0.76922
O         46.01619        41.89714         1.39906
O         36.75801        48.46328        -1.44427
O         27.65568        41.53663        -0.80346
O         34.79796        33.52366        -2.82634
O         42.42816        26.72733        -3.08323
O         43.75964        43.14013         1.41999
O         28.65975        34.28685        -1.98654
O         44.45265        25.34884        -2.11275
O         30.85903        35.84331        -2.45361
O         38.79321        25.81899        -2.88503
O         32.04944        26.70561        -1.47895
O         33.41208        37.19066         0.98723
O         47.76469        27.22203         1.85003
O         43.77430        29.93277         0.19971
O         36.21852        39.50224         1.29027
O         42.42360        29.33140        -3.03015
O         29.04198        39.06099        -1.73878
O         43.49575        46.23749        -1.82953
O         40.78734        48.56158        -1.95300
O         40.46455        24.12200         1.78846
O         33.92835        29.82086        -2.43866
O         28.14930        28.85773        -0.54762
O         33.58143        41.79763         1.78162
O         40.59802        22.01460        -1.22434
H         40.06702        21.89995        -2.04894
O         33.41796        45.48270         2.81424
H         33.54092        46.35975         3.23666
O         47.34836        29.44368        -2.17913
H         48.23562        29.84332        -2.05470
O         46.38027        48.05296         1.79749
H         46.47375        48.97909         2.10880
O         38.88773        39.70456        -2.53464
H         39.67310        39.29192        -2.95304
O         33.76354        43.70406        -1.27662
H         33.72884        44.63574        -1.58157
O         32.75386        29.26773         0.92147
O         38.46901        22.52448        -2.75876
H         38.57546        23.31039        -3.33539
O         29.24743        41.65732         2.50746
H         30.13733        41.87500         2.85840
H         27.62369        27.01122         2.15283
H         26.39757        29.26860         2.25326
H         26.29735        31.62510         1.63714
H         25.91168        33.27317         0.70235
H         25.79310        35.65447         0.36726
H         25.65404        37.54090        -0.07625
H         25.61507        39.95929         0.06673
H         25.71830        41.66627         1.39563
H         25.91070        43.86753         2.46942
H         27.17258        46.05743         2.66653
H         29.55388        25.70625         1.39600
H         29.22742        47.36511         2.46108
H         33.13255        23.39912         0.44421
H         31.06737        24.57659         0.85421
H         32.91909        49.67610         1.53178
H         30.86057        48.45737         1.96618
H         34.47012        22.42976        -0.69741
H         34.42881        50.67873         0.88121
H         36.31491        21.26077        -1.78605
H         36.46235        51.91261         0.50297
H         38.78175        21.53457         2.78706
H         37.17414        22.14275         1.05921
H         40.23624        54.10809         0.41338
H         38.09705        52.89105         0.44934
H         41.35519        21.43096         3.58583
H         42.66780        54.13464         0.21981
H         43.68314        21.92076         3.11364
H         44.81021        52.94603         0.06688
H         47.88994        22.93144         2.42140
H         45.59121        22.10476         2.56608
H         48.56084        50.82425        -0.10968
H         46.46688        52.01297        -0.02796
H         50.00104        23.38835         0.97446
H         50.22781        49.85115         0.00098
H         52.13038        24.60476         0.85554
H         52.30925        48.62405        -0.01940
H         55.91055        26.78896         0.71367
H         53.78212        25.55572         0.71780
H         56.04957        46.44301         0.14131
H         53.93672        47.66282         0.13544
H         57.14653        28.91603         0.84335
H         57.17961        31.36712         0.94264
H         57.20044        33.25694         0.97632
H         57.24232        35.65716         0.67323
H         57.26468        37.53683         0.43238
H         57.29427        39.94375         0.11815
H         57.30978        41.84410        -0.09757
H         57.29976        44.28124        -0.08699
