         635
 CSIRO Nanostructure Databank - Neutral Graphene Oxide Data Set
C         22.93465        69.95105         0.46881
C         22.91261        71.36435         0.58220
C         21.69448        72.09080         0.67604
C         22.90485        74.19194         0.82416
C         21.70451        73.48067         0.78862
C         25.38678        65.66110         0.01217
C         25.36200        67.09143         0.08778
C         24.17658        67.81301         0.18651
C         25.36784        69.97959         0.30307
C         24.14952        69.25231         0.31252
C         25.38347        71.38548         0.51608
C         24.14635        72.08785         0.61832
C         25.38847        74.20140         0.82300
C         24.14776        73.50985         0.74858
C         27.79723        61.39520        -0.35647
C         27.78536        62.80641        -0.32579
C         26.58218        63.53590        -0.23055
C         27.91994        65.63492         0.08263
C         26.57532        64.94037        -0.06447
C         27.82624        67.13017        -0.07967
C         26.63297        67.79625         0.00389
C         27.86918        69.90118         0.47097
C         26.62969        69.29793        -0.14660
C         27.87953        71.36637         0.76827
C         26.61002        72.11301         0.64981
C         27.89079        74.27009         1.08116
C         26.60544        73.50990         0.81019
C         30.27243        57.14913        -0.06530
C         30.24625        58.51672        -0.02135
C         29.06363        59.28566        -0.30330
C         30.21364        61.44802         0.27420
C         28.99892        60.67138        -0.18231
C         30.23511        62.87747        -0.23652
C         29.05358        63.52815        -0.44704
C         30.28904        65.74586        -1.02860
C         28.92823        64.98226        -0.89663
C         30.28784        67.16296        -0.46028
C         29.09271        67.84854        -0.16241
C         30.34924        69.94871         0.16721
C         29.13927        69.22903         0.13739
C         30.35648        71.38009         0.42591
C         29.16322        72.08779         0.67451
C         30.37382        74.19248         0.73799
C         29.16984        73.50439         0.79766
C         32.74236        52.82328        -0.14583
C         32.70036        54.25181        -0.09455
C         31.51041        54.94071         0.11888
C         32.75566        57.13764         0.11082
C         31.47897        56.40219         0.46968
C         32.75926        58.51103         0.12551
C         31.48352        59.25554         0.45985
C         32.75362        61.44566         0.26127
C         31.48386        60.69257         0.00293
C         32.73563        62.88826        -0.21045
C         31.50786        63.58408        -0.32892
C         32.74186        65.67815        -0.57960
C         31.52108        64.97861        -0.56995
C         32.74822        67.14796        -0.74827
C         31.50172        67.87600        -0.43167
C         32.82557        69.96760        -0.05461
C         31.55905        69.25885        -0.12202
C         32.82567        71.38126         0.22118
C         31.60012        72.08315         0.39691
C         32.84350        74.20047         0.58927
C         31.61192        73.50703         0.57223
C         35.28522        48.56744         0.28159
C         35.22086        49.98831         0.26151
C         33.99965        50.68701         0.08035
C         35.20896        52.80585        -0.11351
C         33.96905        52.09778        -0.06451
C         35.18945        54.23282        -0.60502
C         33.94301        54.99714        -0.22601
C         35.20192        57.11836        -0.35868
C         33.96549        56.38566        -0.16429
C         35.22026        58.52804        -0.33769
C         33.97506        59.26807        -0.12152
C         35.20408        61.36996        -0.49763
C         33.96242        60.64619        -0.15736
C         35.21358        62.85577        -0.54568
C         33.94441        63.58604        -0.36527
C         35.24793        65.71015        -0.41348
C         33.97302        64.99392        -0.46467
C         35.28854        67.08381        -0.41547
C         34.05971        67.87489        -0.61954
C         35.29162        69.96129         0.02648
C         34.04244        69.29406        -0.21317
C         35.28928        71.38084         0.23991
C         34.06164        72.08577         0.30139
C         35.31293        74.20889         0.55057
C         34.06888        73.51909         0.48362
C         37.86985        44.30364        -0.08636
C         37.79995        45.76684        -0.13257
C         36.55568        46.48305         0.09406
C         37.76715        48.61115         0.41572
C         36.53312        47.87785         0.24171
C         37.67641        50.04050         0.88669
C         36.43219        50.73155         0.38781
C         37.66708        52.84554         0.26106
C         36.42624        52.12345         0.15315
C         37.60957        54.29213         0.18274
C         36.42516        54.99844        -0.24413
C         37.68371        57.10655        -0.55764
C         36.44359        56.39777        -0.37214
C         37.64870        58.51705        -0.72505
C         36.45530        59.21743        -0.48836
C         37.69677        61.45511        -0.64870
C         36.50195        60.68624        -0.15344
C         37.72810        62.83536        -0.49997
C         36.48984        63.57829        -0.37330
C         37.74069        65.65835        -0.02962
C         36.49487        64.95542        -0.30925
C         37.76162        67.03088         0.07444
C         36.59747        67.82824        -0.46165
C         37.73219        69.93871         0.29675
C         36.50732        69.24800         0.05313
C         37.73267        71.36877         0.42285
C         36.53316        72.07937         0.39170
C         37.78421        74.22579         0.54597
C         36.53630        73.53220         0.51563
C         40.39478        40.12139        -0.32904
C         40.29211        41.48452         0.03151
C         39.13172        42.21428        -0.18126
C         40.31744        44.35730         0.30960
C         39.07239        43.63771         0.01652
C         40.33008        45.77495         0.40671
C         39.11000        46.54432         0.07672
C         40.20320        48.65855         0.81902
C         39.01316        47.96705         0.47485
C         40.21729        50.10249         0.82344
C         38.96019        50.80121         0.66358
C         40.15595        52.92383         0.30192
C         38.90970        52.19836         0.48987
C         40.16932        54.21444        -0.15678
C         38.96894        55.03524        -0.03282
C         40.15650        57.02819        -0.78176
C         38.92871        56.39881        -0.56986
C         40.17037        58.44708        -1.15216
C         38.86592        59.22708        -1.17749
C         40.16754        61.35604        -0.66489
C         38.89081        60.76185        -1.24834
C         40.27756        62.88371        -0.72805
C         38.97690        63.57356        -0.37209
C         40.19146        65.46544         0.73511
C         38.97100        64.88772         0.04194
C         40.25529        67.03305         0.95936
C         38.86024        67.76074         0.80844
C         40.20672        69.92232         0.06494
C         38.93838        69.21067         0.40323
C         40.26150        71.36657         0.49730
C         38.98736        72.06526         0.88435
C         40.25502        74.20954         0.57227
C         39.00891        73.55145         0.60728
C         43.03180        36.12916        -1.49152
C         42.90020        37.37590        -0.84042
C         41.69364        38.08291        -0.74375
C         42.75984        40.07055         0.34299
C         41.59766        39.39654        -0.19598
C         42.74783        41.43426         0.64970
C         41.42188        42.14158         0.78924
C         42.70874        44.31050         0.82491
C         41.49170        43.63407         0.58935
C         42.71368        45.73211         0.92516
C         41.49548        46.45255         0.80735
C         42.71035        48.63693         1.47973
C         41.43688        47.90360         1.13424
C         42.70957        50.20651         1.45078
C         41.42437        50.80840         0.90680
C         42.64129        52.82162        -0.06255
C         41.45715        52.30713         0.74462
C         42.66405        54.10895        -0.54952
C         41.36276        54.81599        -0.85650
C         42.60536        56.98433        -0.94563
C         41.40738        56.32028        -0.76144
C         42.64037        58.43322        -0.95283
C         41.45784        59.14167        -1.03505
C         42.69338        61.32294        -1.05797
C         41.43284        60.57917        -0.70956
C         42.73756        62.77455        -0.67588
C         41.53261        63.37097         0.05381
C         42.68319        65.57642         0.52323
C         41.52313        64.87183         0.26982
C         42.67182        67.01310         0.43532
C         41.46759        67.70508         0.32598
C         42.66887        69.84970         0.24889
C         41.48849        69.16107         0.28164
C         42.73325        71.28180         0.70154
C         41.44272        72.03989         0.52842
C         42.72491        74.15002         0.46186
C         41.48235        73.49951         0.58158
C         45.61696        33.51792        -2.21669
C         44.38275        34.15328        -2.13725
C         45.47636        36.08551        -1.08255
C         44.26627        35.44384        -1.55667
C         45.40779        37.35422        -0.52220
C         44.10174        37.92732        -0.17798
C         45.25540        40.04446         0.74694
C         44.02781        39.32770         0.44782
C         45.18084        41.38640         1.41533
C         43.93689        42.14510         0.98311
C         45.17952        44.27277         1.08134
C         43.94098        43.56073         1.00641
C         45.18575        45.70721         1.11039
C         43.96089        46.43088         1.12982
C         45.22121        48.40269         1.68124
C         43.97899        47.83326         1.39978
C         45.14469        50.45342         1.11769
C         43.90953        50.83077         0.74628
C         45.15553        52.69815        -0.38114
C         43.82927        51.92724        -0.28671
C         45.12664        54.10853        -0.77158
C         43.89451        54.76652        -0.91030
C         45.11316        56.92425        -0.71745
C         43.86562        56.23386        -1.32354
C         45.13605        58.43184        -0.81615
C         43.92128        59.14735        -0.85434
C         45.17542        61.27035        -0.72859
C         43.95703        60.55454        -0.81610
C         45.18010        62.71933        -0.83116
C         43.92091        63.39549        -1.07241
C         45.22370        65.60586         0.22870
C         44.01675        64.93973         0.82589
C         45.22619        67.00133         0.24564
C         43.97564        67.75160         0.66898
C         45.20387        69.87855         0.09766
C         43.93082        69.09373        -0.07184
C         45.16848        71.30550         0.17560
C         43.98373        72.01496         0.30335
C         45.17521        74.16228         0.13162
C         43.96241        73.46075         0.31793
C         46.79104        34.12586        -1.74136
C         47.92976        36.05046        -0.66983
C         46.75611        35.41486        -1.18273
C         47.91595        37.35956        -0.19079
C         46.63508        38.09774        -0.23953
C         47.74220        39.96655         1.18320
C         46.54385        39.46879         0.40675
C         47.73185        41.47520         1.21227
C         46.46351        42.16621         1.21555
C         47.72087        44.25996         0.80397
C         46.41621        43.54808         1.09009
C         47.67509        45.74097         1.04584
C         46.44324        46.41657         1.13122
C         47.66761        48.59434         1.08983
C         46.46850        47.82752         1.32338
C         47.65403        50.13039         0.94313
C         46.35962        50.62378         0.24571
C         47.62402        52.62997        -0.76929
C         46.35251        52.06334        -0.19939
C         47.60964        54.13671        -0.76961
C         46.38368        54.80000        -0.87802
C         47.64765        57.00143        -0.78046
C         46.40175        56.27079        -1.23185
C         47.60423        58.36058        -0.59388
C         46.36007        59.11776        -0.65616
C         47.64133        61.26924        -0.50872
C         46.38438        60.54137        -0.58220
C         47.61043        62.73558        -0.45907
C         46.36449        63.44678        -0.50788
C         47.60488        65.59064        -0.27906
C         46.37492        64.87216        -0.20736
C         47.62034        67.01847        -0.24393
C         46.40968        67.73189        -0.05212
C         47.65634        69.89804        -0.22516
C         46.40792        69.18021        -0.01563
C         47.65103        71.29279        -0.21953
C         46.48010        72.02340         0.38039
C         47.62339        74.20243        -0.07867
C         46.42388        73.50400         0.06336
C         49.08722        38.06443         0.21251
C         50.24031        40.10869         0.95267
C         49.05920        39.36877         0.72224
C         50.20494        41.48438         1.27751
C         48.93018        42.15679         1.32011
C         50.16219        44.37362         1.36043
C         48.86630        43.63849         1.58701
C         50.14427        45.74898         1.17863
C         48.87534        46.45989         1.06521
C         50.12565        48.50505         0.42093
C         48.85585        47.88453         0.94611
C         50.13249        50.01151         0.38715
C         48.90786        50.69701         0.27017
C         50.12056        52.62786        -0.64528
C         48.90767        52.00595        -0.25996
C         50.07651        54.05296        -1.08305
C         48.84142        54.83244        -0.83203
C         50.13411        56.95063        -0.85630
C         48.90460        56.25457        -0.82228
C         50.09683        58.46336        -0.90544
C         48.87318        59.08517        -0.21138
C         50.11979        61.31288        -0.75793
C         48.83261        60.57147        -0.47585
C         50.07308        62.68124        -0.12156
C         48.81145        63.44805        -0.27400
C         50.07764        65.59007        -0.20922
C         48.84396        64.86837        -0.26078
C         50.10362        66.97454        -0.42043
C         48.86640        67.73174        -0.42150
C         50.11160        69.85759        -0.78611
C         48.85814        69.13729        -0.46444
C         50.14304        71.35880        -0.76177
C         48.84460        72.08404        -0.55037
C         50.09441        74.18291        -0.17791
C         48.87611        73.52949        -0.21158
C         51.39782        42.24902         1.45204
C         52.60380        44.42413         1.62783
C         51.39553        43.65301         1.49459
C         52.59326        45.79905         1.55799
C         51.37470        46.50560         1.24223
C         52.59550        48.64650         1.04207
C         51.37539        47.87635         0.98264
C         52.61026        50.01088         0.49844
C         51.36108        50.65239         0.09194
C         52.63767        52.56602        -0.91421
C         51.35390        51.96093        -0.46167
C         52.67308        54.06449        -1.19551
C         51.37156        54.82001        -1.22104
C         52.62487        56.95341        -0.93278
C         51.39146        56.28316        -0.97753
C         52.63211        58.45961        -1.06663
C         51.41131        59.06369        -0.36685
C         52.60396        61.26059        -0.33643
C         51.39911        60.57377        -0.44374
C         52.63048        62.68707        -0.18938
C         51.36148        63.39055         0.10921
C         52.56939        65.50879        -0.43219
C         51.35845        64.90120         0.27258
C         52.57071        67.00168        -0.24369
C         51.39081        67.67332        -0.40747
C         52.72934        69.90040        -0.73726
C         51.41207        69.11769        -0.74476
C         52.56145        71.32059        -0.20343
C         51.39937        72.03926        -0.35210
C         52.54213        74.20633        -0.03557
C         51.36296        73.49115        -0.17527
C         53.87160        46.57456         1.75719
C         54.96224        48.91347         1.76656
C         53.76575        48.05298         1.47836
C         55.04405        50.12047         0.85568
C         53.82144        50.66487         0.32839
C         55.19314        52.58760        -0.67122
C         53.91882        51.73456        -0.73249
C         55.18342        54.10786        -0.88406
C         53.91203        54.83952        -0.98649
C         55.12268        56.98609        -0.76115
C         53.88803        56.24450        -0.89731
C         55.12608        58.42207        -0.63965
C         53.89733        59.14829        -0.60856
C         55.10195        61.25042        -0.21788
C         53.87365        60.52598        -0.36901
C         55.10311        62.66806        -0.11385
C         53.85504        63.39412        -0.13127
C         55.07669        65.53177         0.02442
C         53.86330        64.81423        -0.09313
C         55.08774        66.95620         0.09539
C         53.79016        67.70621         0.28224
C         55.05613        69.83045         0.15847
C         53.87918        69.16205        -0.08798
C         55.06985        71.28481         0.21129
C         53.77584        71.97657         0.28368
C         55.10247        74.16725         0.19620
C         53.79105        73.54030         0.32571
C         56.25478        50.73921         0.66353
C         57.53766        52.75024         0.10330
C         56.37242        52.02128         0.02121
C         57.58833        54.15797        -0.20399
C         56.39002        54.85791        -0.51783
C         57.59555        56.97683        -0.45073
C         56.37290        56.27744        -0.58049
C         57.63957        58.43842        -0.78769
C         56.34249        59.14064        -0.48980
C         57.57846        61.26375        -0.15279
C         56.34272        60.53909        -0.28395
C         57.57134        62.67029        -0.00517
C         56.32666        63.38811        -0.01592
C         57.54976        65.52682         0.19789
C         56.32468        64.81116         0.07636
C         57.54752        66.94847         0.28246
C         56.29934        67.65672         0.23077
C         57.50269        69.78003         0.52742
C         56.30148        69.09414         0.35148
C         57.47422        71.24352         0.73163
C         56.23248        71.99083         0.44763
C         57.55753        74.10674         0.30174
C         56.27085        73.44262         0.37091
C         58.78510        54.87511        -0.04075
C         60.03795        56.99748        -0.08255
C         58.81498        56.28125        -0.20490
C         60.06831        58.41646        -0.07542
C         58.85357        59.14849        -0.26237
C         60.04764        61.25618         0.11307
C         58.82903        60.54410        -0.10497
C         60.04021        62.67631         0.19837
C         58.80079        63.39108         0.14358
C         60.02200        65.52690         0.35298
C         58.79601        64.81095         0.24146
C         60.02222        66.95769         0.43662
C         58.77274        67.67026         0.42172
C         60.00049        69.81637         0.55532
C         58.75934        69.08984         0.53174
C         60.02912        71.23910         0.55264
C         58.77805        71.99683         0.73791
C         60.03258        74.09704         0.31142
C         58.75528        73.44024         0.41318
C         61.27209        59.12385         0.14912
C         62.50101        61.25674         0.31988
C         61.28994        60.53600         0.19638
C         62.51484        62.66894         0.34672
C         61.26651        63.38899         0.31045
C         62.49538        65.52133         0.40635
C         61.26311        64.81064         0.36463
C         62.49971        66.94903         0.46077
C         61.24551        67.67005         0.50226
C         62.46084        69.83419         0.46889
C         61.24217        69.10479         0.52342
C         62.47022        71.23278         0.36499
C         61.23544        71.95148         0.42793
C         62.50949        74.17909         0.47399
C         61.21542        73.40345         0.37743
C         63.72825        63.39149         0.38578
C         64.95787        65.52893         0.33995
C         63.74107        64.80468         0.38724
C         64.96227        66.93501         0.32375
C         63.72375        67.63667         0.43487
C         64.86131        69.74630        -0.25024
C         63.78491        69.12732         0.63655
C         64.91847        71.24500        -0.06770
C         63.72822        71.95311         0.17087
C         64.93582        74.05378        -0.09352
C         63.75099        73.37931         0.15856
C         66.18700        67.67419         0.17812
C         67.37975        69.77800        -0.25433
C         66.19415        69.04924        -0.05840
C         67.37496        71.19120        -0.41341
C         66.13882        71.92464        -0.27524
C         67.38258        74.02889        -0.52823
C         66.15491        73.35269        -0.30265
C         68.56914        71.91126        -0.62578
C         68.56183        73.30991        -0.69466
O         39.41441        58.67313        -2.42229
O         53.62589        72.71005         1.53047
O         40.68197        60.75338         0.54757
O         55.48146        53.14471        -1.98305
O         49.42017        71.89730        -1.91178
O         50.63023        62.73211         1.23212
O         38.61125        46.31096        -1.26668
O         50.71669        69.31996        -2.03039
O         45.26700        49.66512         2.26643
O         44.12806        64.01377         1.61320
O         40.68097        67.26659         2.30125
O         52.66829        53.08006        -2.28576
O         46.75347        39.34745        -1.04962
O         58.09797        71.66237         2.00414
O         43.92136        38.08600         1.27129
O         33.43561        67.63673        -1.96022
O         41.84931        48.16421         2.57041
O         35.18399        62.02996        -1.79850
O         38.34611        54.96002         1.26533
O         50.59876        54.42330        -2.40758
O         45.02673        56.63577         0.70364
H         45.78258        57.06895         1.15290
O         40.53790        63.25152        -2.11010
H         39.91199        62.72154        -2.66651
O         48.01856        44.06618        -0.60606
H         47.33773        44.53649        -1.13057
O         42.87246        71.17997         2.17409
H         42.04725        70.77861         2.52472
O         47.53865        39.49081         2.54599
H         48.16734        39.96113         3.13154
O         51.45966        65.19304         1.67742
H         50.96424        64.48843         2.15391
O         54.90594        46.01165         0.90513
H         54.59523        46.07331        -0.02254
O         45.02997        41.17095         2.86728
H         44.96645        42.05405         3.28897
O         30.51264        65.92666        -2.46458
H         31.36924        66.39150        -2.58711
O         30.09267        61.56350         1.75504
H         30.92334        62.01352         2.04977
O         46.70302        71.95305         1.84085
H         45.83462        72.09079         2.27872
O         36.89245        68.00862        -1.90687
H         36.03756        68.16627        -2.36472
O         28.42847        65.38348         1.41968
H         27.79947        65.76858         2.06490
O         37.51457        49.98174         2.36545
H         38.32681        49.56534         2.72634
O         41.14552        54.54384        -2.28825
H         41.80635        55.07909        -2.78475
O         46.16789        49.80174        -0.93680
H         46.65550        50.23146        -1.67575
O         40.09820        70.00858        -1.42207
H         39.93240        69.10426        -1.76700
O         51.60223        58.69058         1.01766
H         50.77591        58.91588         1.50988
O         47.66367        50.72556         2.26463
H         48.39285        50.32613         2.78184
O         64.45666        69.50952        -1.62916
H         65.15170        69.87856        -2.21313
O         28.25776        64.97761        -2.16932
H         28.94186        65.10142        -2.86640
O         52.55254        58.73913        -2.50824
H         53.30849        58.28747        -2.94026
O         62.45453        75.36788        -0.32494
H         62.40921        75.10165        -1.26585
O         52.34178        65.26233        -1.85469
H         53.04804        65.71189        -2.36416
O         48.55377        43.80569         3.00522
H         49.30628        43.44808         3.52123
O         38.94947        71.94938         2.35979
H         38.16658        72.45270         2.67102
O         53.14540        70.07000        -2.12593
H         52.31320        70.07926        -2.66014
O         43.83674        56.28283        -2.77486
H         44.76672        56.22815        -3.10859
O         41.07495        41.97801         2.21543
H         41.15863        41.02382         2.42885
O         57.78400        58.49921        -2.27274
H         57.10596        57.89799        -2.64933
O         41.57845        62.81670         1.38183
H         41.04111        63.41784         1.96209
O         49.93788        58.82723        -2.30685
H         50.77914        58.57666        -2.76712
O         26.75273        69.58691        -1.58260
H         26.02887        69.11248        -2.04366
O         27.79308        70.34244         1.85522
O         44.04872        67.95405         2.09748
H         43.13615        67.90214         2.46101
O         41.64411        52.88815         2.08418
H         42.17559        52.24359         2.62061
O         43.93876        64.63772        -1.63415
H         43.02117        64.95832        -1.75920
O         38.32467        67.87463         2.16583
H         39.14399        67.74555         2.74017
O         40.05546        64.90829         2.08215
H         40.39580        65.65546         2.66739
O         32.86735        61.57734         1.74519
H         32.76110        60.66189         2.10830
O         46.45195        56.36397        -2.69622
H         47.33686        56.04743        -2.98019
O         43.84231        68.73335        -1.48824
H         43.78873        69.56256        -2.00815
O         42.77385        50.59791         2.85796
H         42.25692        49.92049         3.35541
O         48.99755        58.93096         1.24382
H         48.32281        59.50553         1.66430
O         64.20933        69.35045         2.01539
H         63.53019        68.96497         2.60738
O         31.35039        56.44392         1.93450
H         31.36233        57.40245         2.19089
O         43.62020        51.32043        -1.60355
H         43.36068        52.03393        -2.22429
O         38.89555        61.13820        -2.65979
H         39.21459        60.34652        -3.15999
O         27.89123        75.51892         0.37737
H         27.88634        75.32988        -0.58309
O         53.56353        67.70865         1.74870
H         54.36286        68.09229         2.16963
O         42.58670        61.33598        -2.54644
H         43.39273        61.76524        -2.90636
O         47.58950        52.19782        -2.18678
H         46.88411        52.71442        -2.63254
O         50.13208        61.54618        -2.20331
H         50.03341        60.65087        -2.61881
O         31.40796        59.25217         1.94982
H         30.67455        59.88896         2.17367
O         36.56750        60.73115         1.31522
H         37.43538        60.37360         1.59952
O         35.17381        54.13418        -2.08975
H         34.32039        53.71951        -2.34011
O         50.13075        48.13742        -1.01110
H         50.90995        48.56842        -1.42416
O         54.04548        50.94827        -1.95110
H         54.10165        51.60638        -2.68337
O         56.19237        48.20366         1.79629
H         56.06478        47.32962         1.35336
H         22.89525        75.28724         0.91770
H         25.39306        75.29483         0.94146
H         27.89462        74.53429         2.17614
H         30.37534        75.28668         0.84921
H         32.84233        75.29291         0.71936
H         35.30523        75.30392         0.65748
H         37.77522        75.32487         0.48322
H         40.27583        75.30773         0.49278
H         42.74097        75.25062         0.43477
H         45.14701        75.25848         0.03135
H         47.61197        75.30380        -0.08514
H         50.11099        75.26972        -0.00370
H         52.52445        75.30476        -0.10185
H         55.15500        75.23806        -0.05196
H         57.56210        75.19291         0.12304
H         60.05977        75.19346         0.21958
H         62.60127        74.53053         1.54197
H         64.93391        75.15356        -0.11503
H         67.39430        75.12769        -0.56106
H         21.98564        69.39462         0.47285
H         20.73977        71.54595         0.65537
H         20.75165        74.02486         0.85435
H         24.42745        65.12196        -0.03286
H         23.21967        67.27111         0.22291
H         26.84989        60.85011        -0.49299
H         25.62394        62.99265        -0.23276
H         29.37246        56.58450        -0.35724
H         28.15006        58.73618        -0.58476
H         31.79536        52.26672        -0.08226
H         30.57513        54.37051         0.23545
H         34.35624        47.98616         0.18560
H         33.05686        50.12128         0.04486
H         36.93701        43.73021        -0.19733
H         35.61743        45.91232         0.16116
H         39.53523        39.63877        -0.81993
H         38.23807        41.70805        -0.57880
H         42.14136        35.66795        -1.94464
H         40.78650        37.64379        -1.18576
H         45.67810        32.51351        -2.65950
H         43.48049        33.65214        -2.51602
H         47.74933        33.59177        -1.81198
H         48.87639        35.48875        -0.67641
H         50.06459        37.58220         0.05040
H         51.21534        39.62902         0.77386
H         52.36192        41.71861         1.47751
H         53.55478        43.89778         1.79897
H         54.24031        46.42826         2.81072
H         54.79513        49.33282         2.81588
H         57.15744        50.28263         1.09544
H         58.42796        52.29070         0.55871
H         59.71215        54.33732         0.20624
H         60.97088        56.43878         0.08200
H         62.21382        58.56682         0.26254
H         63.45291        60.70733         0.36557
H         64.68213        62.84370         0.38807
H         65.90923        64.98003         0.28116
H         67.14021        67.12379         0.20725
H         68.34606        69.25050        -0.23098
H         69.51652        71.36296        -0.72983
H         69.50612        73.84621        -0.86485
