         324
 CSIRO Nanostructure Databank - Neutral Graphene Oxide Data Set
C          1.65151         1.93366         1.63782
C          1.68981         3.33291         1.70323
C          2.67622         1.08833         1.18732
C          2.79601         4.17557         1.35728
C          1.37641         5.85110         0.18944
C          1.25496         7.07571        -0.45329
C          2.60515         5.46532         0.74382
C          2.36044         7.95589        -0.55788
C          1.12569        10.91310         0.01879
C          1.25584        12.12439         0.69625
C          2.27013        10.25358        -0.44117
C          2.50569        12.77546         0.73504
C          1.78332        14.56089         2.34614
C          1.94394        15.83288         2.93902
C          2.64226        14.09785         1.35566
C          3.04753        16.64849         2.65019
C          3.23489        17.94808         3.24293
C          4.01964         1.54478         1.14486
C          4.12114         3.68146         1.43334
C          5.04123         1.24225         0.25925
C          5.22618         4.26802         0.76518
C          3.76434         6.37605         0.62966
C          3.63077         7.68475        -0.04732
C          5.16092         5.73094         0.67628
C          4.82721         8.51511        -0.29272
C          3.57304        10.75778        -0.23694
C          3.63682        12.11729         0.18118
C          4.78785         9.95096        -0.44913
C          4.86034        12.87307        -0.14312
C          3.75343        14.96655         0.96739
C          4.03098        16.18467         1.72102
C          4.97819        14.31449         0.22943
C          5.22950        16.88718         1.50649
C          4.33727        18.69832         2.94914
C          5.39780        18.18698         2.11462
C          6.21757         2.06049         0.05192
C          6.27939         3.50976         0.19106
C          7.33079         1.38315        -0.45640
C          7.38966         4.21998        -0.43574
C          6.37881         6.49832         0.22854
C          6.08737         7.86381        -0.37308
C          7.38344         5.66093        -0.53004
C          7.25190         8.54867        -0.83478
C          6.02322        10.63793        -0.60817
C          6.07851        12.12028        -0.55643
C          7.20984         9.96384        -0.93416
C          7.39865        12.79847        -0.44267
C          6.27145        14.93308         0.40072
C          6.35195        16.25941         0.85222
C          7.53746        14.11514         0.29365
C          7.60537        16.97220         0.75810
C          6.56815        18.90476         1.90467
C          7.67311        18.33753         1.19422
C          8.53483         2.04813        -0.81801
C          8.48761         3.48423        -0.93304
C          9.69817         1.30530        -1.04841
C          9.66213         4.16932        -1.50390
C          8.46894         6.38702        -1.05733
C          8.44079         7.79986        -1.16114
C          9.68665         5.66335        -1.50358
C          9.67045         8.51065        -1.57561
C          8.40034        10.75071        -1.36664
C          8.48748        12.17679        -0.95927
C          9.69154        10.01336        -1.60139
C          9.72415        12.93888        -1.26958
C          8.71610        14.94413        -0.17897
C          8.73769        16.35993         0.16112
C          9.77729        14.35135        -0.81677
C          9.90623        17.13091        -0.08300
C          8.83888        19.08553         0.95822
C          9.95716        18.51348         0.30963
C         10.98572         1.94249        -1.33976
C         10.98502         3.45096        -1.53414
C         12.24858         1.30116        -0.97121
C         12.20749         4.19133        -1.15387
C         10.99343         6.33286        -1.29008
C         10.98959         7.79639        -1.46394
C         12.16956         5.65067        -1.07452
C         12.14360         8.57268        -0.86532
C         11.00783        10.70805        -1.48730
C         11.02034        12.18940        -1.62911
C         12.17168        10.02745        -1.28488
C         12.30574        12.90955        -1.43775
C         10.96973        15.14426        -1.18779
C         11.06052        16.53843        -0.68676
C         12.26004        14.38715        -1.54540
C         12.24347        17.26534        -0.77669
C         11.13459        19.26929         0.07604
C         12.30369        18.66253        -0.41303
C         13.42094         2.03124        -0.89667
C         13.36898         3.48911        -0.90782
C         14.69763         1.35699        -0.81796
C         14.57078         4.22787        -0.47295
C         13.42138         6.39921        -0.88110
C         13.44885         7.81445        -0.92370
C         14.62507         5.69361        -0.65417
C         14.67330         8.50181        -0.78371
C         13.47749        10.73661        -1.31068
C         13.48264        12.22091        -1.20112
C         14.73852         9.97895        -1.01325
C         14.76158        12.87694        -0.98522
C         13.55611        15.13576        -1.46495
C         13.51266        16.60945        -1.15906
C         14.82517        14.33925        -1.25716
C         14.72115        17.27999        -0.58104
C         13.51642        19.40710        -0.57539
C         14.77450        18.76610        -0.69730
C         15.89764         2.02405        -0.65031
C         15.86116         3.46721        -0.31397
C         17.16818         1.38522        -0.79942
C         17.11354         4.23253        -0.34986
C         15.85591         6.37628        -0.50663
C         15.86822         7.79263        -0.57429
C         17.10026         5.61464        -0.35062
C         17.17271         8.55975        -0.52906
C         15.92040        10.72771        -0.49751
C         15.90020        12.18924        -0.54264
C         17.02526        10.01519        -0.09561
C         17.14351        12.89190        -0.18843
C         16.05906        15.07345        -0.85907
C         15.97205        16.50730        -0.41565
C         17.23175        14.32028        -0.35949
C         17.26196        17.26474        -0.37788
C         15.98857        19.41934        -0.90392
C         17.29281        18.73658        -0.77455
C         18.37991         2.05333        -0.61362
C         18.36282         3.44960        -0.03515
C         19.63268         1.42231        -0.77553
C         19.62128         4.23237        -0.27395
C         18.34418         6.32671        -0.15148
C         18.26493         7.77080         0.17721
C         19.55218         5.64260        -0.07911
C         19.49230         8.48174         0.65832
C         18.20868        10.73631         0.43360
C         18.26828        12.20062         0.25627
C         19.49105         9.98286         0.71959
C         19.49739        12.87665         0.71310
C         18.43076        15.00984        -0.36782
C         18.42547        16.42891        -0.73297
C         19.63905        14.41423         0.23622
C         19.44098        17.02880        -1.41581
C         18.55533        19.27900        -1.31950
C         19.67040        18.45717        -1.52283
C         20.85510         2.10993        -0.58982
C         20.84660         3.55229        -0.40983
C         22.10294         1.44217        -0.60920
C         22.08459         4.25991        -0.41236
C         20.81987         6.34515         0.23578
C         20.82610         7.78898         0.61429
C         22.06025         5.73950        -0.32853
C         22.07735         8.58479         0.45196
C         20.78500        10.69614         0.66610
C         20.74763        12.08916         0.88349
C         22.03016        10.00952         0.63594
C         21.96776        12.70036         1.25360
C         20.97484        15.00767         0.00482
C         21.23700        15.97794        -1.00279
C         22.07029        14.73814         0.83583
C         22.28999        16.89019        -0.89721
C         21.01264        18.92248        -1.75873
C         22.22931        18.23386        -1.46181
C         23.31568         2.13305        -0.43516
C         23.30989         3.58042        -0.38841
C         24.55925         1.44655        -0.31608
C         24.54139         4.29259        -0.17798
C         23.32174         6.53345        -0.27608
C         23.29609         7.93484         0.23751
C         24.65167         5.79626        -0.42498
C         24.53610         8.63041         0.41018
C         23.26282        10.74366         0.70735
C         23.24510        12.15313         0.96900
C         24.50509        10.04743         0.65083
C         24.46867        12.93732         0.95766
C         23.38706        15.17553         0.52876
C         23.46144        16.42473        -0.20794
C         24.53843        14.38535         0.81024
C         24.65730        17.11324        -0.33994
C         23.45913        18.93780        -1.50017
C         24.67774        18.38605        -1.01085
C         25.73353         2.13196        -0.01591
C         25.68828         3.57180         0.10526
C         27.00386         1.43792         0.06651
C         26.87978         4.27928         0.60103
C         25.78662         6.47579         0.31733
C         25.75986         7.89575         0.50368
C         26.93605         5.75668         0.60079
C         26.96786         8.55853         0.90912
C         25.70669        10.78774         0.82012
C         25.68493        12.18778         0.91931
C         26.99391        10.04395         0.80756
C         26.95618        12.93303         1.10227
C         25.82157        15.03308         0.53948
C         25.86798        16.55200         0.35050
C         26.99508        14.32782         0.62727
C         27.12539        17.09277        -0.26770
C         25.91023        19.06508        -1.12304
C         27.14157        18.38992        -0.83269
C         28.18784         2.08028         0.33570
C         28.15494         3.50546         0.73447
C         29.47679         1.41404         0.39403
C         29.41021         4.30261         0.71563
C         28.14518         6.40549         1.06827
C         28.11915         7.84085         1.22417
C         29.33954         5.69127         1.21530
C         29.37132         8.51925         1.66735
C         28.26938        10.76594         1.08459
C         28.24466        12.23645         1.35827
C         29.45503        10.02552         1.61071
C         29.56834        13.00998         1.25026
C         28.24921        14.81595        -0.01629
C         28.32117        16.26324        -0.39108
C         29.53020        13.97118         0.03971
C         29.62045        16.90539        -0.62628
C         28.38848        18.96808        -1.19388
C         29.61838        18.27558        -1.02454
C         30.64009         2.07889         0.61791
C         30.70819         3.55780         0.66085
C         31.90236         4.26533         1.18124
C         30.54931         6.27846         1.91204
C         30.64973         7.77715         1.68732
C         31.83129         5.50783         1.68145
C         31.82483         8.47963         1.72503
C         30.76828        10.69177         1.46505
C         30.80241        12.10742         1.11603
C         31.89420         9.90399         1.58152
C         31.95193        12.73403         0.70961
C         30.82104        14.79434        -0.00745
C         30.82929        16.18792        -0.46343
C         31.96891        14.11584         0.30478
C         32.04005        16.86963        -0.72054
C         30.86124        18.91390        -1.28220
C         32.04686        18.20864        -1.12924
O          5.21514        12.73268        -1.58035
O         22.53685         6.43485        -1.53972
O          9.47047         4.92593        -2.75685
O         21.91696        13.91426         1.95436
O         17.45609        18.23491         0.66063
O         30.14840         4.18810        -0.56027
O         14.37954        10.29515        -2.40746
O         27.46789        12.67445         2.51094
O         10.15309        12.73305        -2.65106
O          4.34159         2.50297         2.13845
O         10.43145         8.08104        -2.77518
O          3.98452        15.11363        -0.46498
O         20.96111         6.74056         1.64232
O         15.82018        14.75888        -2.26726
O         11.09950         2.58139        -2.69273
O          8.86316        10.47966        -2.72188
O         18.50488         7.95748         1.60166
O         27.33662         3.74833         1.91715
O         18.62927        10.42401         1.81956
O         15.03130         3.79536         0.86306
O         15.09117        16.72518         0.73375
O         27.91481        10.46394        -0.29722
O          2.08956         9.12975        -1.26013
O         11.39247        14.93339        -2.56968
O         19.35315        14.00280         1.60005
O         13.67206        16.13727        -2.52591
O         20.34616        16.16581        -2.05807
O          4.58201         6.36855         1.86305
O         27.99267        15.15627        -1.43286
O         29.18974         9.35822         2.88443
O         30.28180         6.13079         3.35014
H         29.62709         6.81518         3.60898
O         29.51907        13.12203        -1.12680
H         29.16048        13.65990        -1.87018
O         25.84595        17.06964         1.73816
H         24.98220        16.81830         2.13056
O         11.79536         8.59936         0.57062
H         12.61331         8.75496         1.08902
O         25.04442         5.90024        -1.82538
H         24.20842         5.95759        -2.34631
O         17.66089         8.64446        -1.90933
H         16.94264         9.01925        -2.46483
O         29.73938        13.79973         2.43810
H         28.96054        13.62653         3.02086
O         18.31403         3.23718         1.42496
H         18.26725         4.11956         1.85282
O          7.10130         6.82867         1.47386
H          6.40654         7.02428         2.14574
O          7.86830        13.70543         1.67840
H          7.99508        14.52613         2.20187
H          0.65691         1.47779         1.76666
H          0.72055         3.83076         1.86032
H          2.41626         0.09949         0.78296
H          0.51028         5.17867         0.25000
H          0.30416         7.37572        -0.91096
H          0.13628        10.47254        -0.15836
H          0.36232        12.62661         1.09045
H          0.93766        13.93643         2.66822
H          1.19900        16.17681         3.67053
H          2.46209        18.33488         3.92301
H          4.95524         0.33715        -0.36084
H          4.46078        19.69710         3.39318
H          7.29531         0.28613        -0.53203
H          6.67068        19.91785         2.32094
H          9.67629         0.21863        -0.87715
H          8.88675        20.13276         1.29108
H         12.26573         0.21327        -0.80746
H         11.14939        20.33403         0.35190
H         14.70874         0.27094        -0.99674
H         13.47437        20.50378        -0.49664
H         17.18294         0.32012        -1.07992
H         15.98653        20.50468        -1.09012
H         19.66082         0.36329        -1.07545
H         18.63143        20.36376        -1.48957
H         22.12037         0.34579        -0.70204
H         21.12030        19.99490        -1.99145
H         24.57746         0.35180        -0.42406
H         23.47706        19.95875        -1.91139
H         27.01089         0.35953        -0.15513
H         25.94565        20.06355        -1.58253
H         29.48830         0.31778         0.29685
H         28.40516        19.98903        -1.60278
H         31.58057         1.51754         0.72419
H         32.87238         3.74608         1.13207
H         32.75138         5.96610         2.07390
H         32.78056         7.94249         1.80288
H         32.89393        10.35608         1.52066
H         32.90510        12.18589         0.67512
H         32.95303        14.59673         0.20817
H         33.00098        16.35000        -0.61067
H         30.87372        19.96727        -1.59542
H         33.00716        18.70461        -1.32817
