         762
 CSIRO Nanostructure Databank - Neutral Graphene Oxide Data Set
C         23.29272        24.10090        -0.20381
C         22.08176        24.78307        -0.01896
C         23.24178        26.92812        -0.05238
C         22.04962        26.16635         0.05444
C         23.23851        28.36753         0.06486
C         22.02723        29.10164         0.36303
C         23.17784        31.29217         0.29061
C         21.99537        30.44927         0.53058
C         23.24642        32.70044         0.74844
C         22.04964        33.39665         1.02705
C         23.26716        35.48266         1.32668
C         22.05598        34.74818         1.30557
C         23.26852        36.90714         1.58608
C         22.07105        37.61526         1.88030
C         23.25396        39.74679         2.00924
C         22.06751        38.97643         2.11049
C         23.25090        41.18662         2.14829
C         22.08129        41.89728         2.51156
C         23.22077        44.05325         2.33520
C         22.07723        43.28048         2.61793
C         23.19562        45.50900         2.47641
C         22.05039        46.20920         2.91026
C         23.23117        48.32412         2.74498
C         22.07081        47.59991         3.01257
C         25.87084        22.71018        -0.55997
C         25.76183        24.11710        -0.58795
C         24.49585        24.80423        -0.34141
C         25.69480        26.97006        -0.37711
C         24.47190        26.23292        -0.27805
C         25.67295        28.36000        -0.16431
C         24.46378        29.06263         0.03510
C         25.72982        31.26533         0.46156
C         24.49596        30.54533         0.09773
C         25.73503        32.63452         0.67115
C         24.48516        33.38123         0.80505
C         25.72344        35.52209         1.20951
C         24.49119        34.78962         1.09324
C         25.71447        36.90882         1.38790
C         24.49024        37.62911         1.54685
C         25.65081        39.83453         1.51484
C         24.47385        39.07192         1.70847
C         25.64746        41.24785         1.55385
C         24.43764        41.93336         1.88896
C         25.57323        44.10086         1.54299
C         24.41896        43.36967         1.93650
C         25.48718        45.56987         1.53320
C         24.35597        46.25709         2.16177
C         25.70502        48.35743         2.31244
C         24.41026        47.66835         2.32877
C         25.82084        49.73719         2.77518
C         28.17660        22.79982        -1.34857
C         27.05882        22.06979        -0.88478
C         28.08474        24.20747        -1.38111
C         26.92225        24.87118        -0.91289
C         28.12720        27.03632        -0.87755
C         26.93135        26.30749        -0.73134
C         28.18568        28.43133        -0.47486
C         26.95788        29.04452         0.09510
C         28.33036        31.17494         0.62940
C         26.97485        30.46644         0.56386
C         28.21805        32.69237         0.66500
C         27.01771        33.33421         0.82660
C         28.31392        35.58635         1.05321
C         26.99681        34.77016         1.20763
C         28.19684        37.01375         0.97411
C         27.00529        37.68692         1.60691
C         28.14346        39.90492         1.23154
C         26.87321        39.10336         1.03120
C         28.08411        41.36519         1.04647
C         26.83984        42.01460         1.24946
C         27.99453        44.16055         0.86546
C         26.79335        43.44129         1.20019
C         28.02342        45.62793         0.98760
C         26.77939        46.35823         1.37646
C         28.15948        48.06130         2.71823
C         26.86998        47.67607         2.00741
C         28.28719        49.56735         2.99772
C         27.01209        50.32442         3.02019
C         30.69117        20.09700        -2.31784
C         29.58814        20.73403        -1.75371
C         30.29840        22.87592        -2.64024
C         29.36885        22.13032        -1.87844
C         30.33327        24.38071        -2.65584
C         29.16840        25.03831        -1.95537
C         30.46167        27.14119        -1.70577
C         29.29222        26.42841        -1.47030
C         30.45822        28.59448        -1.41562
C         29.29752        29.19291        -0.71303
C         30.64734        31.25615        -0.17296
C         29.27094        30.70635        -0.52143
C         30.72814        32.73453         0.10857
C         29.50544        33.43773         0.60628
C         30.57361        35.61481         0.00723
C         29.49980        34.91654         0.47779
C         30.55994        37.09113        -0.04091
C         29.31045        37.79157         0.44109
C         30.58414        39.97441         0.45731
C         29.41850        39.20294         0.89932
C         30.49851        41.36683         0.42239
C         29.24986        42.06871         0.69657
C         30.44699        44.23422         0.35633
C         29.20513        43.49648         0.58332
C         30.58414        45.50235         0.88579
C         29.36077        46.26471         1.22950
C         30.80972        48.09920         2.21603
C         29.46028        47.43078         2.16089
C         30.85776        49.56284         2.48787
C         29.61574        50.28565         2.89208
C         30.86497        52.40957         2.74459
C         29.69189        51.76761         2.86392
C         32.93457        18.77695        -3.81765
C         32.77827        20.23414        -3.78771
C         31.55165        20.79113        -3.20259
C         32.94352        23.29278        -3.78176
C         31.20121        22.14223        -3.42216
C         32.84777        24.49221        -3.02049
C         31.64562        25.12120        -2.62855
C         32.91813        27.20271        -2.10433
C         31.68685        26.48768        -2.14916
C         33.01117        28.59304        -1.74704
C         31.76612        29.32787        -1.42575
C         33.18086        31.33134        -0.61893
C         31.88775        30.56248        -0.59121
C         33.08757        32.80814        -0.86332
C         31.78533        33.49909        -0.65463
C         33.08478        35.72132        -0.59581
C         31.72546        35.02212        -0.78273
C         33.05140        37.16846        -0.39158
C         31.86767        37.79876        -0.04905
C         32.99076        40.06798        -0.51833
C         31.83648        39.25346         0.19184
C         32.48609        41.35308        -0.92405
C         31.53079        42.08899        -0.26652
C         32.95145        44.16724        -0.28978
C         31.51584        43.58758        -0.51529
C         33.04645        45.49956         0.40700
C         31.83898        46.21488         0.90848
C         33.25081        48.12828         1.60213
C         31.95802        47.47356         1.48187
C         33.28506        49.33423         2.54181
C         32.05216        50.20986         2.40462
C         33.45914        52.35915         2.72229
C         32.13383        51.68974         2.48840
C         33.59864        53.70094         3.35039
C         35.34272        18.62306        -3.19617
C         34.06492        18.03808        -3.57009
C         35.60549        19.91711        -3.69090
C         33.83981        21.05826        -4.18438
C         35.35800        23.05838        -3.52574
C         34.06476        22.45546        -3.82318
C         35.38033        24.38029        -3.10476
C         34.15004        25.02579        -2.61889
C         35.47121        27.20623        -2.36442
C         34.19828        26.48109        -2.17407
C         35.42456        28.66293        -2.29663
C         34.21941        29.27141        -1.71259
C         35.56428        31.45975        -1.50609
C         34.35773        30.64794        -1.20917
C         35.51083        32.89442        -1.26322
C         34.33908        33.59183        -1.00109
C         35.57718        35.78016        -0.79632
C         34.27450        35.04200        -0.83557
C         35.59864        37.28345        -0.85654
C         34.29803        37.99622        -0.59632
C         35.31594        40.08653        -1.58540
C         34.19534        39.40426        -1.07827
C         35.33939        41.54252        -1.77300
C         34.22409        42.38232        -1.68024
C         35.41490        44.31694        -0.89156
C         34.19263        43.68485        -1.05711
C         35.50349        45.69217        -0.35181
C         34.26467        46.34800         0.19781
C         35.69377        48.23514         1.09197
C         34.37306        47.56803         1.04107
C         35.85472        49.37168         2.04824
C         34.63865        50.07114         2.57702
C         35.88560        52.25358         2.53956
C         34.72331        51.55905         2.71292
C         35.90828        53.78227         2.45688
C         34.77020        54.34877         3.27985
C         37.14997        16.23401        -0.89517
C         36.25353        16.70785        -1.79815
C         37.16989        18.97221        -1.57926
C         36.28435        18.08175        -2.24766
C         36.94776        20.34271        -1.79838
C         36.38083        20.83103        -2.96675
C         37.91468        22.93768        -3.07086
C         36.61304        22.24393        -3.40711
C         37.94451        24.42883        -3.16265
C         36.63129        25.16573        -3.10525
C         37.93410        27.28723        -2.67672
C         36.65900        26.58183        -2.68339
C         37.99548        28.66029        -2.39157
C         36.74235        29.43036        -2.31565
C         38.06367        31.46537        -1.48981
C         36.74427        30.81029        -1.79312
C         38.03083        32.92964        -1.82819
C         36.74217        33.64183        -1.59381
C         38.04083        35.79860        -1.57225
C         36.82938        35.06278        -1.17999
C         37.89534        37.21346        -2.08921
C         36.67348        37.99853        -1.59266
C         37.78964        40.08884        -2.37888
C         36.57473        39.35639        -1.83732
C         37.81699        41.61206        -2.58578
C         36.55905        42.30775        -2.07488
C         37.93101        44.41367        -1.51126
C         36.59588        43.76338        -1.59581
C         37.92213        45.80490        -0.98854
C         36.83266        46.23834        -0.08347
C         38.29108        48.10284         0.87229
C         36.92222        47.59339         0.49283
C         38.41724        49.45343         1.51456
C         37.16791        50.10428         2.00657
C         38.45358        52.28800         2.16494
C         37.12592        51.58908         2.08102
C         38.45967        53.62115         2.77983
C         37.27972        54.37315         2.83249
C         38.61447        56.35023         3.44743
C         37.38840        55.75246         3.11537
C         39.19366        15.12884         0.99056
C         39.11688        16.50230         0.71155
C         38.31438        17.01789        -0.43549
C         39.20523        19.41813         0.10062
C         38.33653        18.51552        -0.76423
C         39.61707        20.83983        -0.25036
C         38.71610        21.52744        -1.19361
C         40.38891        22.95580        -2.28201
C         39.00144        22.39336        -2.18626
C         40.42012        24.38617        -2.74105
C         39.18501        25.14791        -2.80860
C         40.43591        27.29694        -2.92614
C         39.17170        26.53796        -2.81121
C         40.48329        28.69958        -2.51078
C         39.25585        29.37272        -2.26616
C         40.48918        31.49665        -2.11969
C         39.28516        30.76645        -2.02089
C         40.49123        32.95638        -2.01124
C         39.30507        33.67324        -1.79025
C         40.47437        35.83841        -2.04281
C         39.24686        35.11236        -1.79116
C         40.46157        37.27921        -2.08949
C         39.17224        38.00362        -1.73048
C         40.39588        40.18262        -2.29527
C         39.12576        39.40076        -2.30814
C         40.32768        41.61448        -2.29100
C         39.11756        42.31376        -2.17542
C         40.34528        44.54167        -2.10264
C         39.08201        43.75408        -1.93318
C         40.40459        45.95822        -1.61321
C         39.19148        46.59822        -1.00515
C         40.58956        48.57619        -0.19278
C         39.43827        47.64204         0.04823
C         40.81632        49.74799         0.68005
C         39.65824        50.27311         1.35679
C         41.00709        52.11074         2.26153
C         39.70110        51.52030         1.95298
C         41.04407        53.44838         2.94468
C         39.72866        54.18140         3.24525
C         40.99604        56.11759         4.24917
C         39.77213        55.59565         3.61211
C         41.00295        57.49698         4.76287
C         40.68827        15.55448         2.85135
C         39.98339        14.65999         2.04153
C         40.62170        16.92661         2.58836
C         39.83501        17.42132         1.51485
C         41.83920        19.91226         1.63993
C         39.82530        18.83480         1.17045
C         42.10144        20.80920         0.64025
C         41.00028        21.44810        -0.15119
C         42.65640        23.22212        -0.92081
C         41.42713        22.44144        -1.23832
C         43.18421        24.15953        -1.77770
C         41.60071        25.05257        -2.95983
C         42.98946        27.20550        -2.49104
C         41.76762        26.52329        -2.98685
C         42.98621        28.62263        -2.45977
C         41.72696        29.37276        -2.47094
C         42.94900        31.53353        -2.37304
C         41.71827        30.79705        -2.32438
C         42.94367        32.96121        -2.42959
C         41.70214        33.68458        -2.25530
C         42.86610        35.86205        -2.66854
C         41.66036        35.10109        -2.27657
C         42.94131        37.30457        -2.18681
C         41.61770        38.03533        -2.26454
C         42.89653        40.20570        -2.37818
C         41.61737        39.48229        -2.30577
C         42.90205        41.62041        -2.39785
C         41.61360        42.32955        -2.49642
C         42.93695        44.50049        -2.21744
C         41.63748        43.83344        -2.40976
C         42.97142        45.88591        -1.69492
C         41.72575        46.57265        -1.27079
C         43.04810        48.71964        -0.83911
C         41.74842        48.04527        -0.98147
C         43.16913        49.90033        -0.11539
C         42.04773        50.40568         0.66908
C         43.48275        52.37288         1.58715
C         42.24846        51.53669         1.60694
C         43.62817        53.55836         2.29504
C         42.33948        54.41134         2.72799
C         43.49914        56.24106         4.32527
C         42.33974        55.40493         3.95539
C         43.41550        57.42690         4.99772
C         42.15388        58.08514         5.17597
C         43.50265        17.74545         4.24617
C         42.53439        18.24036         3.36327
C         44.17733        19.80612         2.45570
C         42.85991        19.28820         2.46480
C         44.51088        20.92540         1.55298
C         43.45693        21.42612         0.60188
C         44.83395        23.53805         0.34828
C         43.44011        22.93096         0.34264
C         45.09126        24.69041        -0.42364
C         44.17774        25.11815        -1.41105
C         45.48301        27.24927        -1.85336
C         44.24014        26.43995        -2.12019
C         45.44251        28.72672        -1.97032
C         44.20305        29.38260        -2.29947
C         45.40367        31.56005        -2.40323
C         44.18434        30.82059        -2.36031
C         45.40091        32.95695        -2.57405
C         44.17019        33.65297        -2.60610
C         45.43483        35.86106        -2.71522
C         44.17011        35.10865        -2.85072
C         45.41805        37.31866        -2.90044
C         44.10126        38.07375        -2.77938
C         45.35691        40.22893        -2.71135
C         44.13075        39.52948        -2.54696
C         45.33609        41.64888        -2.67445
C         44.11547        42.34946        -2.51788
C         45.39205        44.52965        -2.43995
C         44.13371        43.81340        -2.42758
C         45.38065        46.01394        -2.50366
C         44.12419        46.74309        -2.10302
C         45.45831        48.93336        -1.64812
C         44.14983        48.18844        -1.66740
C         45.56994        50.08530        -0.71819
C         44.46495        50.55905        -0.00922
C         45.89487        52.54585         0.71338
C         44.63404        51.69927         0.92621
C         45.89024        53.93320         1.19236
C         44.89991        54.30678         2.15091
C         46.25788        56.34206         2.53432
C         45.23809        55.45807         2.90617
C         44.77672        18.30955         4.27267
C         46.40171        20.07504         3.52940
C         45.12932        19.36436         3.40312
C         46.60241        21.32483         2.85930
C         45.63958        21.80923         1.92626
C         47.05359        23.78369         1.48477
C         45.82803        23.03654         1.25280
C         47.32011        24.96345         0.75238
C         46.41529        25.32902        -0.34249
C         47.70759        27.49956        -0.56483
C         46.61927        26.64902        -1.06652
C         47.76080        28.95511        -0.94524
C         46.61769        29.43593        -1.80460
C         47.99946        31.52366        -2.41165
C         46.67556        30.81230        -2.34099
C         48.01310        33.02288        -2.58275
C         46.66819        33.72797        -2.73090
C         47.88004        35.92435        -2.42810
C         46.64240        35.20122        -2.54778
C         47.87406        37.35985        -2.50367
C         46.66087        38.07201        -2.71862
C         47.85921        40.18451        -2.75116
C         46.62518        39.49115        -2.76690
C         47.87480        41.63258        -2.97709
C         46.57172        42.41678        -2.93677
C         47.86303        44.57249        -2.63838
C         46.62246        43.87676        -2.63792
C         47.94596        45.98994        -2.42756
C         46.68454        46.76532        -2.50568
C         48.00823        48.82972        -1.72763
C         46.71320        48.22874        -2.10022
C         48.01716        50.18581        -1.32844
C         46.81652        50.81374        -0.78857
C         47.93152        53.01701        -0.67662
C         46.86203        52.10967        -0.28857
C         48.03631        54.33676        -0.05919
C         46.97153        54.78881         0.83466
C         47.07341        56.05174         1.45192
C         48.56027        20.33209         4.62602
C         47.41352        19.58957         4.37268
C         48.75247        21.59954         4.04153
C         47.78886        22.08683         3.11694
C         49.24563        24.04732         2.60267
C         48.02292        23.31862         2.41770
C         49.49486        25.21342         1.83882
C         48.51710        25.69809         0.92912
C         50.01964        27.65113         0.31323
C         48.68323        26.97915         0.25529
C         50.32204        28.77386        -0.64011
C         49.15410        29.40614        -1.38425
C         50.46687        31.63706        -1.61988
C         49.24191        30.80514        -1.91310
C         50.27112        33.12351        -1.44621
C         49.14572        33.82081        -2.08771
C         50.31274        35.99793        -1.86390
C         49.10353        35.22820        -2.11797
C         50.33448        37.40907        -2.13929
C         49.10252        38.08555        -2.41245
C         50.33974        40.22007        -2.59650
C         49.09705        39.50157        -2.57356
C         50.31812        41.65393        -2.69769
C         49.12195        42.36006        -2.79548
C         50.36788        44.46110        -2.48426
C         49.12104        43.84457        -3.07028
C         50.41262        45.91322        -2.16441
C         49.15480        46.69201        -2.24622
C         50.46035        48.75910        -1.64288
C         49.21197        48.10479        -1.92285
C         50.47555        50.13932        -1.34729
C         49.25992        50.86291        -1.27030
C         50.49256        53.09016        -1.00983
C         49.25946        52.32825        -1.18217
C         50.39459        54.45275        -0.75139
C         49.20320        55.05705        -0.27845
C         50.77820        22.03801         5.41199
C         49.91215        22.41064         4.36000
C         51.33192        24.36287         3.95285
C         50.17945        23.60141         3.62785
C         51.69034        25.51954         3.09907
C         50.78500        25.93192         1.97569
C         51.98205        28.13430         1.78695
C         50.94597        27.31064         1.42488
C         52.04694        29.58641         1.32606
C         51.64528        29.53323        -0.59903
C         52.92806        31.80036        -0.61514
C         51.68193        30.99053        -1.01685
C         52.75046        33.30120        -0.68331
C         51.47304        33.95150        -1.02838
C         52.70696        36.10922        -1.29705
C         51.48991        35.37681        -1.40724
C         52.77518        37.46990        -1.74192
C         51.56200        38.12423        -2.14508
C         52.82414        40.18736        -2.76313
C         51.58878        39.52628        -2.49220
C         52.76267        41.59643        -3.05107
C         51.57798        42.34935        -2.82304
C         52.85576        44.46711        -2.79735
C         51.63276        43.76002        -2.78439
C         52.87808        45.91324        -2.54965
C         51.72201        46.59993        -2.24025
C         53.06318        48.70210        -1.57117
C         51.73543        47.98896        -1.70667
C         53.07796        50.16631        -1.19612
C         51.73016        50.88881        -1.04216
C         52.96734        53.02020        -0.97451
C         51.74985        52.36951        -1.04576
C         51.89181        22.79207         5.72590
C         53.41960        24.70818         5.28878
C         52.20586        23.95733         4.99082
C         53.56192        26.06523         4.71293
C         52.63988        26.53946         3.63531
C         54.11617        28.44875         3.02693
C         52.97581        27.72565         2.78444
C         54.56905        29.55457         2.08251
C         53.41650        30.22211         1.33537
C         54.93018        32.12233         0.87493
C         53.67672        31.35772         0.63840
C         55.00244        33.51396         0.30807
C         53.83592        34.08482        -0.39944
C         55.07444        36.21223        -0.62160
C         53.86440        35.49689        -0.73336
C         55.19178        37.52564        -1.21404
C         54.02242        38.14509        -1.77651
C         55.51933        39.96064        -2.74239
C         54.10304        39.40890        -2.57447
C         55.78988        41.31788        -3.25642
C         53.87478        42.38409        -3.46143
C         55.39626        44.37524        -2.80370
C         54.03640        43.73434        -3.13163
C         55.34595        45.82996        -3.21745
C         54.20750        46.60717        -2.60554
C         55.42707        49.00396        -2.50458
C         54.30858        48.07490        -2.17766
C         55.51896        50.43465        -2.03419
C         54.26892        50.99397        -1.41384
C         54.20070        52.34630        -1.19564
C         55.53725        25.07347         6.49445
C         54.40898        24.26595         6.13665
C         55.80461        26.28389         5.89564
C         54.92090        26.67681         4.76396
C         56.33801        28.74972         4.32305
C         55.16800        27.89050         3.93126
C         56.49227        30.10212         3.70889
C         55.53272        30.55852         2.69421
C         56.70522        32.72549         2.54048
C         55.74431        31.80316         2.07850
C         56.76687        34.16527         2.07919
C         55.99591        34.46469         0.82388
C         57.55586        36.20412         0.10827
C         56.14866        35.66442         0.17796
C         57.62352        37.59508        -0.49635
C         56.47617        38.13882        -1.23332
C         57.73512        40.38408        -1.49849
C         56.65441        39.40360        -1.94163
C         57.60352        41.89424        -1.70281
C         56.72146        42.21943        -2.88551
C         58.02943        44.38995        -3.29564
C         56.64668        43.63961        -3.44458
C         57.81893        45.87443        -2.89868
C         56.54356        46.40076        -3.50692
C         57.90399        49.01063        -2.68238
C         56.62371        48.59800        -3.11495
C         57.93467        49.98279        -1.61683
C         56.80219        50.64738        -1.25025
C         57.79892        26.83936         7.27523
C         56.89684        27.16024         6.28408
C         58.05293        29.47140         6.12021
C         56.95883        28.51380         5.67599
C         58.33147        30.68857         5.29927
C         57.43743        31.06629         4.31094
C         58.76442        33.26957         4.02429
C         57.49464        32.40799         3.73384
C         59.07667        34.39961         3.10600
C         58.14396        34.81082         2.12895
C         59.53560        36.76153         1.61888
C         58.39237        35.97110         1.35858
C         59.56731        38.23513         1.21805
C         58.70242        38.55021        -0.02354
C         60.10460        40.47053        -0.82480
C         58.66374        40.02594        -0.34641
C         60.09974        41.96971        -1.12015
C         58.97630        42.55188        -1.75982
C         60.25269        44.59917        -2.21088
C         59.06971        43.82513        -2.34062
C         60.33282        45.97506        -2.74766
C         59.09632        46.66266        -3.15531
C         60.42902        48.86099        -2.79587
C         59.12116        48.26475        -3.07257
C         58.87939        27.70920         7.62988
C         59.04581        28.93514         7.06132
C         59.52756        31.46063         5.50661
C         59.79829        32.59997         4.80533
C         60.26955        35.12626         3.26415
C         60.46401        36.31656         2.57351
C         60.93962        38.85567         0.93286
C         61.13089        39.93442         0.15959
C         61.26666        42.73566        -1.00386
C         61.32492        44.04160        -1.49027
C         61.52240        46.67628        -2.75089
C         61.56482        48.10380        -2.80276
O         39.24776        47.12947         1.40201
O         57.28878        28.86715         3.21857
O         46.71457        47.82485        -3.50656
O         41.21948        17.78441         3.52871
O         41.87251        51.16434         2.98040
O         44.50180        49.13467        -2.73012
O         33.29513        44.24008         1.13272
O         30.86800        29.46046        -2.57954
O         27.84928        35.04271         2.36368
O         37.35758        24.96607        -4.37744
O         44.53373        20.62832         0.07928
O         23.77701        31.13882        -1.03987
O         30.36413        47.18852         3.28155
O         32.99525        41.87436        -2.11175
O         57.94012        39.59369        -2.67047
O         29.25843        24.98197        -3.43895
O         56.54612        47.64391        -4.12922
O         34.91407        20.38675        -4.81699
O         47.46665        30.87544        -3.59754
O         54.83801        41.69876        -4.22012
O         50.62394        27.40475        -1.04820
O         41.59121        55.11376         5.15427
O         34.59635        46.59217        -1.20099
O         39.14151        17.55351        -1.52810
O         37.69235        22.32624        -4.38618
O         44.42890        46.52227        -3.50192
O         29.59170        37.64816        -1.00620
O         59.05944        38.89514         2.34289
O         29.02887        39.43337         2.29436
O         51.98687        25.10957         1.72241
O         41.16360        27.10107        -4.18741
O         38.07574        49.46042         2.95151
O         45.29153        26.57734        -3.13996
O         32.94729        39.83544         0.92199
O         41.56340        43.16231        -3.71243
O         51.55167        31.19344        -2.47217
O         51.05336        30.33084         1.68863
O         37.19763        33.33952        -2.95730
O         36.17826        48.65741        -0.23672
O         32.87489        52.32249         1.36833
O         49.47437        29.63035        -2.75908
O         28.65726        46.46814        -0.04834
O         47.10313        25.40223        -1.63813
O         37.64884        52.26673         0.89038
O         52.52045        47.94759        -0.45540
O         36.24650        43.42141        -2.98363
O         56.67137        29.55564         6.65801
O         48.29736        52.95136        -2.07913
O         37.38199        21.27746        -0.86405
O         54.93816        39.10230        -3.76767
O         32.09196        32.93189        -1.97110
O         40.52876        19.65604         2.05289
O         35.90100        29.31757        -3.52569
O         40.21593        45.68515        -3.02308
O         52.46304        50.36462         0.11138
O         44.75259        55.67776         4.19438
O         42.12110        55.22223         1.65616
O         41.39258        21.97786        -2.63361
O         59.10670        47.49781        -4.31589
O         47.17264        42.06844        -4.23010
O         52.41028        26.92838         5.03253
O         39.92149        21.86786         0.76909
O         42.55745        45.89017        -0.26492
O         57.51365        33.47300         4.75808
O         34.15854        30.80040         0.29724
O         44.60180        37.72253        -4.07783
O         50.42532        33.56739        -0.04782
O         40.72094        48.84813        -1.63034
O         55.73547        32.38597        -0.31432
O         43.33614        35.54189        -3.99278
O         55.61856        26.56003         3.46542
O         36.47372        35.24801         0.24878
O         38.39617        39.47298        -3.56987
O         58.95222        37.74614        -1.18908
O         40.46676        53.28547         4.21901
O         45.78536        51.55989         1.80860
O         35.31219        37.86627         0.46003
O         31.81614        22.84178        -4.47490
O         29.10294        49.79439         4.19774
O         50.30132        44.87377        -1.08579
O         35.50109        49.24728         3.45369
O         25.83508        46.24441         0.26669
O         26.95505        29.37327         1.55803
O         54.72042        46.97914        -1.25296
O         34.26325        25.38314        -1.19194
O         42.74649        24.28427        -3.10399
O         38.18452        46.90257        -1.99344
O         47.49385        33.40257        -3.89291
O         30.60742        33.03736         1.51743
O         31.36929        30.41377         0.76745
O         28.96862        30.83266         1.86663
H         28.48464        30.06544         2.25408
O         27.95978        47.43214         4.01260
H         28.72149        47.71524         4.57163
O         37.81707        41.78267        -4.02186
H         37.55016        42.71250        -4.20806
O         28.81756        31.29665        -1.75407
H         29.35920        30.90836        -2.48183
O         53.87757        31.49886        -1.67263
H         53.99032        30.52453        -1.71682
O         56.91359        42.43495        -0.55447
H         57.42182        42.17481         0.25416
O         49.22344        44.00343        -4.51764
H         48.47592        43.49309        -4.91150
O         37.74608        37.00102        -3.50893
H         37.86283        37.87226        -3.96698
O         47.59694        29.71957         0.31069
H         46.77968        29.41607         0.75958
O         27.18121        37.75174         3.04282
H         27.44276        36.84999         3.34109
O         52.66874        28.82539        -1.14534
H         52.36710        27.88109        -1.22762
O         31.37076        35.34091        -2.15544
H         31.69016        34.59461        -2.71711
O         55.70675        51.25603        -3.25296
H         56.51402        50.93751        -3.71223
O         58.70088        44.38186        -4.56451
H         58.03952        44.12714        -5.25222
O         31.12718        43.87295        -1.87364
H         31.67691        43.31320        -2.46839
O         58.31361        40.77941         0.81150
H         58.59888        40.24661         1.63262
O         57.63887        45.95738        -1.46327
H         56.91746        45.32997        -1.18653
O         26.69987        38.91960        -0.40348
H         26.51222        39.79077        -0.81138
O         35.65422        54.15122         1.08199
H         36.29432        53.64886         0.52481
O         33.09488        48.76830         3.86994
H         33.96874        48.42758         4.17302
O         55.34000        28.85650         1.05392
H         56.15942        28.52015         1.49156
O         55.49267        44.29976        -1.36696
H         54.84777        44.93094        -0.97565
O         43.26723        37.22800        -0.75642
H         42.43532        37.08551        -0.25618
O         42.73217        23.47111         1.50713
H         42.65028        24.44076         1.39547
O         38.20306        31.43503        -0.02592
H         38.13474        30.50435         0.27396
O         60.41338        39.87346        -2.09040
H         60.13686        38.92838        -2.08144
O         39.18602        38.15730        -0.28523
H         38.91735        37.30407         0.12013
O         56.39017        43.63766        -4.85920
H         55.77806        42.89197        -5.07335
O         58.15791        35.30863        -0.88284
H         58.89083        35.80189        -1.31711
O         55.97181        34.89581         3.09079
H         56.39166        34.70005         3.96811
H         23.27802        23.00421        -0.25499
H         21.14813        24.21084         0.07037
H         21.08305        26.66493         0.20244
H         21.09814        28.54041         0.53100
H         21.06139        30.91974         0.86854
H         21.08771        32.86934         0.98414
H         21.09701        35.25023         1.48445
H         21.11466        37.07947         1.93641
H         21.11138        39.46498         2.34034
H         21.15339        41.35449         2.73454
H         21.14474        43.77295         2.92305
H         21.12337        45.67442         3.15434
H         23.21241        49.41475         2.86868
H         21.16362        48.13123         3.33174
H         25.00717        22.09648        -0.27092
H         24.90785        50.33941         2.87829
H         27.09963        20.97316        -0.84057
H         27.04138        51.37646         3.33637
H         30.87430        19.03654        -2.09494
H         28.90360        20.13772        -1.13513
H         30.89762        53.50858         2.74417
H         28.77139        52.34421         3.03020
H         31.99642        18.20754        -3.92487
H         32.74786        54.13131         3.89956
H         33.94820        16.94501        -3.49864
H         34.88553        55.32860         3.76604
H         37.01835        15.21817        -0.49588
H         35.44171        16.05610        -2.15106
H         38.62334        57.42805         3.65659
H         36.49411        56.38804         3.06611
H         38.65531        14.40721         0.36246
H         40.05420        58.04516         4.82829
H         41.29207        15.19009         3.69253
H         40.04491        13.58097         2.23753
H         44.33804        57.91899         5.33032
H         42.13820        59.09583         5.60556
H         43.23838        16.94521         4.94968
H         46.42570        57.24392         3.13689
H         45.49773        17.93754         5.01232
H         47.86196        56.75833         1.16565
H         49.31899        19.90602         5.29459
H         47.30835        18.60889         4.85486
H         51.30474        55.06775        -0.72731
H         49.28587        56.09358         0.07525
H         50.56859        21.14123         6.00860
H         52.99733        54.11490        -0.89336
H         52.53680        22.47333         6.55503
H         55.10812        52.95342        -1.32197
H         56.19592        24.69404         7.28801
H         54.33349        23.27593         6.60671
H         58.88337        50.17747        -1.09611
H         56.83310        51.42771        -0.47659
H         57.74429        25.86155         7.77315
H         60.49009        49.94524        -2.62267
H         59.61909        27.34380         8.35604
H         59.94111        29.52469         7.30039
H         60.31592        31.04247         6.14719
H         60.81281        33.02081         4.83283
H         61.01360        34.81241         4.00872
H         61.34813        36.92677         2.80247
H         61.77560        38.49387         1.55216
H         62.14568        40.35826         0.09103
H         62.15484        42.31192        -0.51512
H         62.24840        44.61641        -1.33652
H         62.46909        46.15542        -2.55067
H         62.54130        48.59412        -2.68198
