         732
 CSIRO Nanostructure Databank - Neutral Graphene Oxide Data Set
C         23.08794        24.95775         0.42913
C         21.96652        25.71141        -0.04874
C         23.49724        26.97997        -1.49795
C         22.12730        26.75632        -0.90905
C         23.70835        28.29298        -2.20797
C         22.87200        28.52020        -3.30892
C         24.03287        30.59501        -3.71017
C         23.06363        29.65023        -4.08285
C         23.93432        32.93779        -4.05459
C         22.76117        33.63318        -4.38703
C         23.78067        35.67755        -3.59169
C         22.65589        34.98328        -4.07895
C         23.73972        37.13626        -3.42242
C         22.46208        37.78546        -3.20983
C         23.49683        40.02035        -3.10212
C         22.34732        39.11605        -2.96899
C         23.44446        41.40151        -2.55876
C         22.20420        42.06094        -2.39953
C         23.25398        44.18163        -1.78689
C         22.11178        43.40999        -2.05660
C         23.18988        45.56093        -1.41022
C         22.00831        46.17805        -0.97542
C         23.14039        48.32045        -0.61101
C         21.98884        47.52770        -0.59848
C         25.51945        23.51480         1.38874
C         25.56794        24.79963         0.82072
C         24.39520        25.41710         0.23347
C         25.73053        27.38170        -0.40942
C         24.56951        26.63485        -0.51043
C         25.70864        28.86023        -0.77211
C         24.74388        29.19619        -1.89543
C         25.88739        31.46860        -2.05605
C         24.88858        30.42407        -2.60202
C         26.23796        32.71455        -2.98797
C         25.01218        33.54189        -3.39191
C         26.24460        35.68620        -3.22295
C         24.96469        34.95141        -3.30045
C         26.21745        37.19482        -3.34073
C         24.90529        37.87269        -3.30994
C         26.07361        40.10889        -2.81834
C         24.87450        39.34703        -3.24421
C         25.92735        41.48295        -2.49535
C         24.64865        42.09024        -2.30295
C         25.82144        44.27423        -1.60872
C         24.55676        43.47372        -1.77820
C         25.75286        45.76240        -1.68498
C         24.39731        46.41486        -1.52828
C         25.59950        48.54973        -0.98807
C         24.37772        47.80643        -1.03794
C         25.58650        49.95741        -0.75032
C         27.94437        23.46787         1.68443
C         26.67671        22.86653         1.80665
C         28.02616        24.81340         1.19714
C         26.82280        25.48906         0.75686
C         28.11046        27.57130         0.25361
C         26.86230        26.80414         0.23035
C         28.21149        28.77521        -0.60409
C         27.09263        29.40341        -1.08187
C         28.33987        31.47486        -1.41678
C         27.17253        30.75650        -1.61381
C         28.23743        32.97360        -1.33281
C         27.27772        33.61044        -2.31250
C         28.43951        35.78443        -2.05572
C         27.37677        34.99225        -2.55949
C         28.59371        37.22444        -2.32339
C         27.43411        37.98839        -2.95622
C         28.48808        40.11089        -2.23789
C         27.32478        39.43844        -2.67928
C         28.51655        41.56983        -2.29648
C         27.14879        42.30501        -2.41166
C         28.29184        44.41763        -1.70849
C         27.12596        43.68246        -1.92967
C         28.21975        45.83543        -1.37488
C         26.97813        46.51174        -1.36701
C         28.08725        48.65234        -0.90682
C         26.88360        47.90632        -1.11450
C         28.03255        50.06898        -0.68309
C         26.74228        50.68801        -0.63450
C         30.29123        20.66134         2.57449
C         29.12238        21.39029         2.41063
C         30.43067        23.38251         1.89829
C         29.15958        22.74563         2.01583
C         30.49531        24.73208         1.39710
C         29.29361        25.42815         1.07200
C         30.68582        27.41223         0.28296
C         29.37799        26.83992         0.66289
C         30.75035        28.70786        -0.26151
C         29.56621        29.31245        -0.98710
C         30.77044        31.50835        -0.88160
C         29.57174        30.82580        -1.02286
C         30.79856        32.95990        -1.17343
C         29.55550        33.65928        -1.34531
C         30.70768        35.90086        -0.85142
C         29.51008        35.11737        -1.31403
C         30.74637        37.35629        -1.05597
C         29.64964        38.00588        -1.63213
C         30.75073        40.16646        -1.20123
C         29.63487        39.42654        -1.71909
C         30.75149        41.61430        -1.24926
C         29.63407        42.31810        -1.71423
C         30.73154        44.47211        -1.26584
C         29.56801        43.74546        -1.62402
C         30.68115        45.89758        -1.08691
C         29.41276        46.56953        -1.12387
C         30.54653        48.72096        -0.66672
C         29.34520        47.97948        -0.89763
C         30.50125        50.14407        -0.54568
C         29.23079        50.81349        -0.53237
C         30.34986        52.97530        -0.26579
C         29.21685        52.23948        -0.27280
C         32.69514        19.08631         1.81735
C         32.73666        20.37128         2.41945
C         31.56190        21.26136         2.48638
C         32.86977        23.42084         2.21754
C         31.62896        22.67759         2.25505
C         32.95048        24.70161         1.60621
C         31.75612        25.37604         1.21741
C         33.10782        27.38154         0.65333
C         31.85267        26.71014         0.68620
C         33.13250        28.72730         0.22820
C         31.98528        29.40398        -0.25243
C         33.16929        31.59435        -0.26278
C         32.01284        30.85236        -0.50653
C         33.21489        33.04505        -0.22156
C         32.06980        33.78494        -0.78970
C         33.03068        35.95379        -0.01358
C         31.96780        35.21967        -0.54431
C         33.00029        37.37751         0.00613
C         31.86699        38.07955        -0.55984
C         32.90308        40.27449         0.12585
C         31.84562        39.48990        -0.62021
C         33.07487        41.64455        -0.46153
C         31.96077        42.33468        -0.93959
C         33.13696        44.51000        -0.78457
C         31.96829        43.77774        -1.06243
C         33.10998        45.93313        -0.64265
C         31.85930        46.62392        -0.80099
C         32.98616        48.79263        -0.37025
C         31.80809        48.05502        -0.61850
C         32.94147        50.20591        -0.21448
C         31.70807        50.87831        -0.38821
C         32.83211        53.11534         0.01446
C         31.67916        52.36893        -0.63101
C         33.00231        54.51986        -0.35861
C         35.14363        18.89623         1.95713
C         33.85822        18.34739         1.68025
C         35.23263        20.22863         2.43760
C         33.99820        20.79410         2.84512
C         35.34388        23.32191         2.33360
C         34.08375        22.90766         2.74623
C         35.42826        24.64865         1.82303
C         34.22860        25.34613         1.51046
C         35.53510        27.39340         1.31684
C         34.31076        26.71843         1.13343
C         35.51759        28.85573         1.17923
C         34.33214        29.51012         0.54528
C         35.65451        31.65168         0.41065
C         34.44015        30.89304         0.01783
C         35.44648        33.05122         0.93763
C         34.27042        33.74942         0.30820
C         35.44292        35.94587         0.77978
C         34.13320        35.20162         0.69710
C         35.30905        37.39532         0.99572
C         34.15087        38.13088         0.43280
C         35.42137        40.26433         0.59710
C         34.20022        39.52079         0.34190
C         35.51054        41.63874         0.24762
C         34.38028        42.26656        -0.45526
C         35.58458        44.53538        -0.17691
C         34.41548        43.81852        -0.66609
C         35.52844        45.96655        -0.12004
C         34.29741        46.64291        -0.35757
C         35.45404        48.82575         0.19672
C         34.33010        48.13568        -0.53507
C         35.34601        50.22123         0.42542
C         34.15098        50.91318         0.16814
C         35.34556        53.13715         0.60341
C         34.09215        52.36310         0.44037
C         35.31527        54.52710         0.46157
C         34.15721        55.18359        -0.08245
C         37.48127        16.10266         1.14452
C         36.32399        16.80364         1.37551
C         37.62021        18.82845         1.90037
C         36.36694        18.17474         1.73239
C         37.67747        20.21776         2.28427
C         36.50079        20.93776         2.50030
C         37.80824        23.16721         2.78484
C         36.58266        22.44986         2.23040
C         37.79508        24.64613         2.54763
C         36.68944        25.32714         1.93340
C         37.89893        27.51947         2.15766
C         36.72568        26.74350         1.77673
C         37.87730        28.93866         1.97193
C         36.79058        29.60015         1.26505
C         38.09202        31.71218         1.12372
C         36.81342        30.93688         0.99703
C         37.92047        33.21019         1.29300
C         36.73113        33.85454         1.00249
C         37.84891        36.04912         1.36649
C         36.64061        35.29640         1.04979
C         37.80888        37.42535         1.47370
C         36.54453        38.17371         1.39764
C         37.78145        40.34298         1.30520
C         36.58927        39.62471         1.10911
C         37.84899        41.72438         0.98428
C         36.69836        42.38168         0.45855
C         37.94889        44.52683         0.43125
C         36.74646        43.81381         0.20956
C         38.01760        45.97898         0.01422
C         36.70935        46.70425         0.15362
C         37.87382        48.79681         0.76544
C         36.66676        48.11013         0.39371
C         37.81900        50.20627         1.17194
C         36.49399        50.95669         1.02064
C         37.78729        53.08602         1.08686
C         36.56268        52.42853         0.90981
C         37.81479        54.55832         1.13611
C         36.51128        55.32514         0.80823
C         37.88152        57.32832         0.39239
C         36.67994        56.69901         0.32267
C         39.89268        14.63869         0.52897
C         39.92871        16.02786         0.76638
C         38.73996        16.75669         1.16414
C         40.06683        18.83636         1.37797
C         38.81495        18.12549         1.52101
C         40.16886        20.21295         1.74419
C         39.05865        20.79819         2.61295
C         40.40631        22.99392         2.58653
C         39.10261        22.33030         2.81381
C         40.64553        24.30268         2.94965
C         38.82894        25.45881         3.00305
C         40.41417        27.34037         2.83978
C         39.04021        26.82841         2.69078
C         40.59610        28.69125         3.18949
C         38.75860        29.80941         2.63492
C         39.98140        31.93590         2.69542
C         38.93153        31.15162         2.23794
C         40.26539        33.23578         2.19021
C         39.09643        33.94600         1.68022
C         40.28371        36.05422         1.98501
C         39.07797        35.34241         1.68027
C         40.28920        37.44179         1.98063
C         39.00112        38.16376         1.91266
C         40.27434        40.41682         2.12166
C         38.95716        39.66533         1.92796
C         40.28254        41.77816         1.47010
C         39.09380        42.44533         1.12212
C         40.35307        44.57088         0.95208
C         39.12399        43.85005         0.82198
C         40.37352        46.00940         0.85457
C         39.18785        46.72224         0.58356
C         40.32463        48.87322         1.07431
C         39.12421        48.13801         0.77989
C         40.31123        50.26378         1.26123
C         39.07185        50.98117         1.22180
C         40.29618        53.11589         1.25130
C         39.04282        52.38401         1.21636
C         40.31882        54.52224         1.06885
C         39.09614        55.26147         0.95481
C         40.36692        57.35848         0.69985
C         39.10491        56.64394         0.73438
C         40.41168        58.75966         0.72970
C         42.22396        14.64688        -0.09053
C         41.02963        13.95863         0.10467
C         42.30731        16.03128         0.15308
C         41.14851        16.73741         0.59111
C         42.43523        18.84920         0.67761
C         41.20542        18.15048         0.86435
C         42.50897        20.23557         0.97833
C         41.37199        20.89374         1.53176
C         42.72805        23.05264         1.59700
C         41.63258        22.20979         2.21354
C         42.76752        24.46607         1.75419
C         41.67170        25.13775         2.38232
C         42.80101        27.27990         2.10174
C         41.62030        26.56865         2.46007
C         42.95640        28.68619         2.53298
C         41.78091        29.44526         2.99508
C         42.86795        31.68543         2.55786
C         41.84361        30.85453         3.10392
C         42.79104        33.09755         2.32960
C         41.54441        33.82952         2.28632
C         42.78322        36.01745         1.86820
C         41.55572        35.33858         2.41515
C         42.72546        37.41617         1.70644
C         41.53200        38.16463         1.90376
C         42.72421        40.30207         1.67478
C         41.52734        39.60086         1.81137
C         42.75136        41.72571         1.55875
C         41.52432        42.45288         1.42068
C         42.78703        44.56887         1.28985
C         41.54827        43.86691         1.20687
C         42.78956        45.99872         1.24647
C         41.59252        46.70578         1.07546
C         42.81886        48.86531         1.52467
C         41.64629        48.19227         0.84586
C         42.73219        50.25097         1.81563
C         41.54244        50.98153         1.53421
C         42.75110        53.15094         1.54813
C         41.52865        52.41365         1.47078
C         42.80078        54.51735         1.25591
C         41.57249        55.22750         0.97331
C         42.88004        57.32649         0.42898
C         41.58763        56.61185         0.75001
C         42.83733        58.78596         0.80129
C         41.64991        59.44944         0.86409
C         44.74007        16.07575        -0.39729
C         43.55950        16.74521        -0.00378
C         44.85674        18.83194         0.15508
C         43.61441        18.13936         0.26205
C         44.91037        20.24515         0.39724
C         43.75035        20.95053         0.80115
C         45.01142        23.09506         0.67286
C         43.81801        22.37259         1.01556
C         45.06137        24.53719         0.83241
C         43.91710        25.21831         1.33711
C         45.16179        27.36388         1.23680
C         43.95563        26.63497         1.54122
C         45.14612        28.88373         1.20025
C         44.19173        29.46023         2.23453
C         45.35347        31.71804         1.95702
C         44.15994        30.96563         2.40033
C         45.24167        33.17471         1.72393
C         44.01851        33.83809         1.93091
C         45.19691        35.98337         1.35130
C         43.97643        35.27290         1.69840
C         45.20229        37.39219         1.22434
C         43.91087        38.16384         1.15898
C         45.23175        40.28824         1.29139
C         44.02516        39.53964         1.80356
C         45.22122        41.70203         1.27178
C         43.99215        42.42078         1.42629
C         45.24313        44.56203         1.30162
C         44.00143        43.84658         1.35821
C         45.25200        45.98095         1.39403
C         44.02592        46.71385         1.40934
C         45.29120        48.70558         2.17011
C         44.00820        48.11585         1.63011
C         45.25728        50.23493         2.21687
C         43.95328        50.98667         2.23933
C         45.26492        53.17130         1.93716
C         43.93302        52.52458         2.25083
C         45.26941        54.58266         1.67357
C         44.05676        55.24746         1.30973
C         45.34744        57.26544         0.88271
C         44.11568        56.60928         0.92614
C         45.94647        16.74229        -0.48422
C         47.30775        18.81465        -0.23834
C         46.04013        18.12305        -0.19403
C         47.35320        20.21131        -0.05854
C         46.14719        20.94398         0.22361
C         47.39246        23.07214        -0.05023
C         46.15418        22.36094         0.29816
C         47.45751        24.57764         0.14345
C         46.25930        25.27496         0.63544
C         47.69790        27.34025         0.99653
C         46.31972        26.67886         0.83750
C         47.70321        28.84908         1.03306
C         46.50410        29.57249         1.26632
C         47.80672        31.69881         1.64433
C         46.52281        30.95486         1.46707
C         47.69197        33.16073         1.22188
C         46.46358        33.85662         1.35868
C         47.62334        35.99772         0.86466
C         46.43125        35.28053         1.19157
C         47.60789        37.42140         0.75674
C         46.39343        38.11802         0.99150
C         47.59404        40.27530         0.62192
C         46.39312        39.56897         0.97443
C         47.61663        41.71374         0.69138
C         46.43924        42.41656         1.01826
C         47.68752        44.55618         1.01702
C         46.45630        43.84761         1.11675
C         47.70740        45.95670         1.18674
C         46.50812        46.67271         1.39610
C         47.72165        48.80550         1.34546
C         46.52995        48.09208         1.55441
C         47.66454        50.27866         1.21614
C         46.42608        50.99151         1.66221
C         47.72157        53.11455         1.72646
C         46.47321        52.45499         1.87481
C         47.73811        54.55967         2.17950
C         46.50916        55.28500         1.65281
C         46.53337        56.61749         1.25792
C         49.73729        18.73640        -0.51809
C         48.52921        18.09822        -0.44926
C         49.84582        20.15788        -0.37938
C         48.62495        20.90285        -0.11646
C         49.89257        23.02484         0.00225
C         48.63998        22.29344        -0.03349
C         49.89844        24.49595        -0.10851
C         48.78566        25.22265         0.21046
C         50.25444        27.28789         0.77685
C         48.92300        26.71418         0.25701
C         50.18093        28.80635         0.64709
C         48.97036        29.53901         0.97849
C         50.19912        31.71648         0.85035
C         48.98328        30.94469         1.09177
C         50.10457        33.18295         0.63098
C         48.87358        33.87176         0.85574
C         50.02278        36.01022         0.27248
C         48.84404        35.28940         0.66084
C         49.96306        37.41172         0.05401
C         48.78124        38.14142         0.33597
C         49.82173        40.36065        -0.48847
C         48.74636        39.56625         0.23282
C         50.01373        41.75387         0.05938
C         48.84835        42.44082         0.48994
C         50.11791        44.55787         0.49687
C         48.89920        43.83950         0.71336
C         50.16502        45.97426         0.65974
C         49.02325        46.66369         1.35359
C         50.12497        48.86546         0.77800
C         48.94142        48.14498         1.09711
C         50.12147        50.33100         0.77661
C         48.92113        51.04135         1.06548
C         50.06712        53.25709         0.91018
C         48.88278        52.44633         1.26471
C         50.10011        54.66628         1.36309
C         49.03658        55.26589         1.91249
C         52.29316        20.15691        -0.97213
C         51.06571        20.82143        -0.61777
C         52.24381        23.06304        -0.96371
C         51.15633        22.26068        -0.34372
C         52.27334        24.53219        -0.72645
C         51.12316        25.20971        -0.41195
C         52.14145        27.44543        -1.14095
C         50.95426        26.71312        -0.47313
C         52.32569        28.85877        -0.62645
C         51.28135        29.48646         0.08624
C         52.35313        31.68398        -0.55611
C         51.36831        30.94705         0.27644
C         52.36402        33.16174        -0.42307
C         51.23597        33.89135         0.20155
C         52.47767        35.98806        -0.30972
C         51.24186        35.29746         0.04158
C         52.46394        37.43776        -0.45477
C         51.15285        38.10805        -0.47908
C         52.41555        40.32266        -0.65047
C         51.12475        39.60024        -0.69455
C         52.44618        41.72156        -0.44806
C         51.23026        42.43646        -0.10445
C         52.51005        44.56936        -0.09801
C         51.28658        43.85214         0.09941
C         52.51518        45.99453        -0.05023
C         51.30943        46.70812         0.31507
C         52.47037        48.91110         0.00203
C         51.28838        48.15019         0.41169
C         52.56442        50.33714         0.37862
C         51.34449        51.03051         0.61305
C         52.67989        53.14731         0.71722
C         51.36726        52.50481         0.58572
C         53.44270        20.83576        -1.24682
C         54.74788        23.02615        -1.57403
C         53.44629        22.29832        -1.43769
C         54.79900        24.52242        -1.30614
C         53.55759        25.25460        -0.87336
C         54.69809        27.45492        -1.54641
C         53.49767        26.73859        -1.01246
C         54.68621        28.85376        -1.55921
C         53.50777        29.57485        -1.05873
C         54.59904        31.76160        -1.73974
C         53.55617        30.95742        -0.99847
C         54.84410        33.11621        -1.09518
C         53.68044        33.84539        -0.49142
C         54.99886        36.01996        -0.54476
C         53.67108        35.30536        -0.46335
C         54.83087        37.38176        -1.22778
C         53.59973        38.14357        -0.79542
C         54.85588        40.29366        -0.92686
C         53.61722        39.59341        -0.83430
C         54.89337        41.70050        -0.75937
C         53.68587        42.41910        -0.50471
C         54.95976        44.54235        -0.38664
C         53.72134        43.84704        -0.33905
C         54.95035        45.96407        -0.31822
C         53.74940        46.68007        -0.23415
C         55.01666        48.89626        -0.15724
C         53.75953        48.16302        -0.31757
C         55.04600        50.25907         0.16343
C         53.80716        50.99598         0.39690
C         53.82385        52.41514         0.65492
C         56.85449        23.18874        -2.80717
C         55.76146        22.46263        -2.47090
C         56.97575        24.59655        -2.49746
C         55.89578        25.28993        -1.93309
C         57.02356        27.44285        -2.36902
C         55.86543        26.72997        -1.94201
C         57.03649        28.87278        -2.32803
C         55.86742        29.57969        -1.93776
C         57.04044        31.72285        -2.27984
C         55.89326        31.01500        -1.94864
C         56.99983        33.23007        -2.47274
C         55.98165        33.91092        -1.58661
C         57.27478        35.98137        -1.63363
C         56.08872        35.24905        -1.28421
C         57.40522        37.42074        -1.17769
C         56.09798        38.18105        -1.17108
C         57.35693        40.28361        -1.23250
C         56.09517        39.55066        -1.12351
C         57.36622        41.69893        -1.05261
C         56.15192        42.41242        -0.79997
C         57.44871        44.50040        -0.69588
C         56.19306        43.81199        -0.59265
C         57.51748        45.94870        -0.40741
C         56.23692        46.69885        -0.23296
C         57.55668        48.83983        -0.22760
C         56.25859        48.16987        -0.59619
C         57.52095        50.17988         0.16249
C         56.32370        50.88318         0.32082
C         59.31982        24.62712        -3.34257
C         58.16558        25.31202        -2.90370
C         59.37477        27.44175        -3.17942
C         58.19103        26.73377        -2.80993
C         59.39859        28.89286        -3.08724
C         58.22845        29.59503        -2.67163
C         59.45024        31.73746        -2.88250
C         58.24611        31.02116        -2.60658
C         59.51025        33.18292        -2.67054
C         58.35519        33.89992        -2.37799
C         59.68802        36.01432        -2.20818
C         58.41449        35.31299        -2.10453
C         59.75003        37.41029        -2.05347
C         58.44145        38.16405        -2.00601
C         59.78491        40.29281        -1.62005
C         58.53740        39.61121        -1.57229
C         59.82072        41.68847        -1.37713
C         58.59777        42.40308        -1.18208
C         59.85658        44.56237        -1.50846
C         58.60991        43.82718        -1.05691
C         59.91609        46.02455        -1.11522
C         58.75658        46.70649        -0.71278
C         60.01860        48.79442        -0.62430
C         58.78485        48.11562        -0.49007
C         60.46702        25.32591        -3.69682
C         60.49591        26.71921        -3.62176
C         60.55028        29.63009        -3.41295
C         60.57981        31.01613        -3.29863
C         60.77088        33.87568        -2.69099
C         60.85417        35.22313        -2.47594
C         60.95639        38.16655        -2.08742
C         60.97691        39.52906        -1.90055
C         61.06633        42.42039        -1.21253
C         61.09450        43.76971        -1.16597
C         61.11005        46.74204        -1.29252
C         61.16369        48.11148        -1.01710
O         39.77974        24.90989         3.86342
O         29.61762        35.55526         0.15237
O         25.20431        43.65224        -0.42746
O         57.00160        46.31646         0.94446
O         28.58202        37.60675        -3.75913
O         24.08083        31.66718        -4.59224
O         45.14267        31.39772         3.42148
O         50.50659        53.08453        -0.47211
O         44.12324        28.76988         3.49718
O         28.67281        27.75597         1.59822
O         36.96744        55.12962         2.18258
O         52.88929        48.67250        -1.39477
O         51.83826        32.53352        -1.65800
O         49.58448        26.98351        -1.16115
O         54.70040        33.18154         0.36619
O         34.49882        29.51340         2.02619
O         36.91521        50.44207         2.32055
O         34.73253        42.87572        -1.73957
O         47.24534        23.98171        -1.20473
O         46.60991        50.66921         0.23464
O         44.67004        50.61814         3.49734
O         28.03827        42.12165        -3.55596
O         35.46361        31.28317        -0.99720
O         50.85581        22.59036         1.04267
O         40.77576        31.48807         3.75910
O         26.48089        36.35310        -4.51284
O         55.26728        23.54470        -0.31046
O         25.04156        46.26624        -2.85931
O         34.03291        21.89265         3.70556
O         38.35418        22.69771         4.03570
O         31.81407        33.38294        -2.17442
O         50.96800        38.69920        -1.84485
O         38.63385        38.92924         3.15445
O         53.76593        26.15358         0.29546
O         33.04266        52.77061         1.40361
O         24.18111        39.94881        -4.39070
O         35.55449        37.77136         2.41556
O         51.37447        31.34373         1.67860
O         39.47606        29.33995         3.74263
O         52.41815        22.75394        -2.39671
O         42.99118        57.30162        -1.04688
H         42.20926        57.77639        -1.40139
O         35.08617        32.82608         2.33948
H         34.58917        33.62691         2.64387
O         32.35325        40.48650         1.48312
H         32.27096        39.60550         1.90715
O         56.54882        33.42627        -3.85780
H         56.33642        34.37769        -3.96805
O         54.06442        32.06591        -3.05901
H         53.87537        31.22075        -3.51682
O         57.93188        38.18396        -3.37862
H         58.60785        38.61800        -3.94014
O         47.98550        26.92585         2.37715
H         48.90473        27.18896         2.62067
O         44.24273        39.32762         3.22644
H         44.12738        40.18488         3.68679
O         38.28195        45.94052        -1.45662
H         37.51162        45.49620        -1.87378
O         31.86046        52.55735        -2.07468
H         31.10965        52.11886        -2.52816
O         43.67667        52.91966         3.64646
H         44.14712        52.26627         4.21488
O         45.38451        48.23159         3.55620
H         44.84060        48.85185         4.09771
O         47.59290        54.53762         3.63980
H         46.68595        54.22215         3.84223
O         27.63232        33.22108         0.02819
H         27.99232        34.07799         0.35670
O         38.83781        31.52398        -0.12850
H         38.20823        31.66300        -0.86861
O         41.62176        35.54706         3.87415
H         40.84661        35.10030         4.27635
O         26.84633        32.15106        -4.17250
H         27.03512        32.88080        -4.79899
O         48.05370        31.74525         3.10667
H         47.19117        31.61306         3.56496
O         23.62612        25.95556        -2.55814
H         23.48669        25.08213        -2.13283
O         25.27354        32.00932        -0.85156
H         25.96832        32.53410        -0.37230
O         41.91126        48.35149        -0.60506
H         41.19952        47.87267        -1.08318
O         51.86075        27.51049        -2.55966
H         50.89153        27.64303        -2.65711
O         36.85839        22.46812         0.77708
H         36.07704        22.09845         0.31346
O         25.23991        29.53398         0.43053
H         25.12798        30.49106         0.19259
O         44.55072        29.25584        -0.08489
H         45.10915        28.88424        -0.80029
O         55.44048        36.22522         0.83044
H         55.43211        35.34337         1.26552
O         43.64463        38.39409        -0.26148
H         43.65333        37.52600        -0.71612
O         59.78207        44.58070        -2.97878
H         59.75682        43.64736        -3.27947
O         42.17683        21.79251         3.53130
H         41.48340        21.23734         3.95822
O         56.19360        48.16646        -2.07192
H         55.97999        49.07706        -2.36758
O         54.61731        37.05952        -2.64104
H         54.50468        37.90225        -3.12954
O         33.68322        35.15951         2.11769
H         33.90221        36.02848         2.52373
O         50.69999        26.86912         2.06098
H         51.56797        27.28233         2.25178
O         40.38618        40.72275         3.54699
H         39.90764        40.00058         4.02140
O         29.75650        28.90322        -2.39397
H         30.51807        29.40852        -2.75119
O         57.87252        37.37877         0.19690
H         57.13426        36.99343         0.73372
O         34.65895        48.33558        -1.97943
H         33.95756        47.88573        -2.49861
O         49.33869        46.54527         2.80610
H         48.55242        46.87076         3.29645
O         39.37036        20.26574         3.94327
H         38.82921        20.78441         4.58300
O         49.25824        40.59431        -1.82157
H         49.51477        39.81138        -2.36499
H         22.89570        24.08586         1.06965
H         20.96463        25.44133         0.31637
H         21.26436        27.33241        -1.27312
H         22.09915        27.78445        -3.56784
H         22.44887        29.84489        -4.97087
H         21.94682        33.10661        -4.90070
H         21.73480        35.52499        -4.33148
H         21.56686        37.15440        -3.11955
H         21.37784        39.52432        -2.65009
H         21.27613        41.51923        -2.62647
H         21.11864        43.87985        -2.03612
H         21.08272        45.59171        -0.89179
H         23.06702        49.35532        -0.24999
H         21.04532        47.96658        -0.24571
H         24.55933        22.98595         1.46557
H         24.62421        50.48396        -0.69190
H         26.58177        21.85073         2.21182
H         26.66297        51.77283        -0.48622
H         30.22229        19.58630         2.79217
H         28.16335        20.86980         2.52824
H         30.30571        54.05497        -0.06091
H         28.26056        52.73438        -0.05395
H         31.73875        18.66543         1.47721
H         32.19508        55.01974        -0.91272
H         33.78068        17.33360         1.26706
H         34.22171        56.25009        -0.33562
H         37.40875        15.03950         0.88576
H         35.36149        16.28233         1.30201
H         37.94335        58.37144         0.05283
H         35.82299        57.23721        -0.10413
H         38.97018        14.06578         0.68458
H         39.48430        59.34556         0.76333
H         43.10365        14.08464        -0.42807
H         40.98531        12.87586        -0.07560
H         43.77727        59.34709         0.89458
H         41.63198        60.53430         1.04322
H         44.72030        15.00327        -0.62836
H         45.40781        58.30500         0.53435
H         46.83579        16.17569        -0.78765
H         47.48106        57.17164         1.22004
H         50.64343        18.13826        -0.68216
H         48.50958        17.00579        -0.55222
H         51.01994        55.24270         1.18679
H         49.11838        56.30992         2.24966
H         52.32965        19.05878        -0.94063
H         52.73590        54.24010         0.81313
H         54.38487        20.28748        -1.38740
H         54.78530        52.93908         0.73590
H         57.61539        22.72318        -3.44724
H         55.61890        21.44645        -2.86458
H         58.45969        50.71214         0.37320
H         56.38498        51.93716         0.61922
H         59.33449        23.53093        -3.39070
H         60.07125        49.87902        -0.45861
H         61.35891        24.77954        -4.03310
H         61.41722        27.24011        -3.91213
H         61.46146        29.11909        -3.74954
H         61.51176        31.53799        -3.55181
H         61.69560        33.31668        -2.88570
H         61.83832        35.70887        -2.52426
H         61.91450        37.64943        -2.24192
H         61.94340        40.04970        -1.94125
H         61.99473        41.85273        -1.05429
H         62.04739        44.29086        -0.99554
H         62.01304        46.23100        -1.65300
H         62.10932        48.65683        -1.14269
