         640
 CSIRO Nanostructure Databank - Neutral Graphene Oxide Data Set
C         22.95013        27.46459         0.07412
C         23.02986        28.75039         0.48281
C         23.15276        31.63372         1.17390
C         23.21732        32.98609         1.35060
C         23.26430        35.92757         1.51088
C         23.30791        37.29918         1.72810
C         23.45388        40.16096         2.32564
C         23.53268        41.50302         2.61735
C         23.73937        44.37781         3.28285
C         23.81210        45.73638         3.55101
C         25.27443        24.61090        -0.27211
C         24.09826        25.29398        -0.39075
C         25.40362        27.43348        -0.38541
C         24.07738        26.76798        -0.64391
C         25.38236        28.93686        -0.43685
C         24.22881        29.55257         0.34107
C         25.63012        31.56829         0.90065
C         24.29680        30.87536         0.73160
C         25.59902        33.06979         0.75872
C         24.41907        33.75220         1.08707
C         25.62938        35.89553         0.85465
C         24.42349        35.19030         1.13256
C         25.55691        37.39455         0.66457
C         24.46194        38.05870         1.46352
C         25.77329        40.16514         1.52385
C         24.55322        39.44861         1.76450
C         25.85434        41.54739         1.84498
C         24.72751        42.24150         2.39372
C         26.04872        44.32204         2.45483
C         24.82600        43.63667         2.72865
C         26.19058        45.73159         2.89685
C         25.00507        46.47309         3.34915
C         26.23977        48.60446         3.16947
C         25.10712        47.86162         3.53887
C         27.85454        23.06166        -0.38485
C         27.77615        24.48951        -0.05455
C         26.53961        25.26987        -0.26323
C         27.88095        27.40021        -0.33563
C         26.58963        26.70373        -0.30288
C         27.91718        28.83128        -0.37916
C         26.71296        29.57938        -0.15570
C         28.01056        31.64533         0.08883
C         26.77925        30.91405         0.18902
C         28.02021        33.04409         0.25841
C         26.82098        33.76776         0.53905
C         28.05146        35.93876         0.32369
C         26.82502        35.20598         0.58434
C         28.06341        37.37219         0.41406
C         26.88735        38.09013         0.75148
C         28.17865        40.18557         0.88172
C         26.93822        39.47256         1.02979
C         28.23418        41.56999         1.15323
C         27.08525        42.25314         1.61611
C         28.25429        44.43283         1.29523
C         27.13252        43.65806         1.87766
C         28.31246        45.92871         1.47655
C         27.37861        46.55128         2.45268
C         28.49783        48.74071         2.05564
C         27.35613        48.02349         2.54203
C         28.62953        50.14342         2.26232
C         30.32243        23.08587        -0.36534
C         29.04555        22.40897        -0.44216
C         30.34797        24.48570        -0.32157
C         29.11231        25.24360        -0.06384
C         30.33668        27.36564        -0.51974
C         29.09321        26.69352        -0.32746
C         30.36360        28.77863        -0.64805
C         29.14956        29.51721        -0.47979
C         30.38028        31.65403        -0.62840
C         29.19410        30.94923        -0.33706
C         30.44693        33.05703        -0.49082
C         29.34195        33.76328         0.26987
C         30.40341        35.96033        -0.34838
C         29.24216        35.24890         0.00576
C         30.45166        37.36671        -0.22224
C         29.29441        38.07873         0.22685
C         30.55679        40.19762         0.13691
C         29.34883        39.48481         0.42807
C         30.63533        41.60338         0.32741
C         29.57432        42.27191         1.16361
C         30.60325        44.48177         0.52262
C         29.49311        43.75503         0.91596
C         30.62476        45.93720         0.60586
C         29.55488        46.64448         1.17859
C         30.71645        48.78326         0.93095
C         29.59685        48.05723         1.40572
C         30.82723        50.20112         1.17514
C         29.75784        50.83408         1.88421
C         32.81327        20.26304        -0.60115
C         31.60856        20.94523        -0.51041
C         32.80588        23.06784        -0.51080
C         31.56785        22.35523        -0.46962
C         32.80507        24.49663        -0.51984
C         31.57502        25.20780        -0.46700
C         32.80280        27.33948        -0.63030
C         31.57008        26.63247        -0.55097
C         32.80696        28.77329        -0.83321
C         31.59522        29.46660        -0.88275
C         32.79890        31.65478        -1.40425
C         31.47108        30.90519        -1.35838
C         32.82564        33.10498        -1.14000
C         31.60683        33.77351        -0.83039
C         32.87259        35.95678        -0.90703
C         31.54342        35.26162        -1.04656
C         32.87767        37.37279        -0.80483
C         31.67162        38.07945        -0.49087
C         32.92056        40.20034        -0.58117
C         31.70485        39.48869        -0.34137
C         32.92643        41.64050        -0.55932
C         31.75774        42.33553        -0.09751
C         32.84771        44.51629        -0.49447
C         31.77563        43.79259        -0.00037
C         32.89610        45.95908        -0.37540
C         31.78760        46.65631         0.20229
C         32.91825        48.80255        -0.19048
C         31.80380        48.08244         0.29688
C         32.83268        50.29522        -0.33965
C         31.94424        50.92723         0.70722
C         33.26242        52.99838         0.64086
C         32.22727        52.26548         1.13372
C         35.34609        18.79605        -0.66515
C         35.31630        20.20511        -0.69626
C         34.04803        20.94103        -0.64153
C         35.27905        23.10364        -0.67174
C         34.04579        22.36013        -0.59043
C         35.27931        24.48454        -0.62196
C         34.04012        25.21867        -0.54254
C         35.27454        27.38990        -0.22706
C         34.02284        26.62793        -0.55380
C         35.27695        28.82432        -0.68489
C         34.08071        29.46208        -0.95726
C         35.33645        31.66276        -1.03475
C         34.10507        30.89918        -1.28682
C         35.31412        33.07363        -1.10075
C         34.06032        33.79384        -1.13782
C         35.32694        35.93569        -1.06924
C         34.07504        35.23512        -1.02860
C         35.34181        37.36090        -1.13139
C         34.10352        38.09236        -0.95760
C         35.42193        40.24035        -0.87118
C         34.10598        39.49779        -0.87434
C         35.30530        41.70470        -1.26405
C         34.06978        42.35187        -0.99825
C         35.18128        44.53047        -1.48373
C         33.87888        43.80418        -1.33873
C         35.14589        46.00057        -1.45819
C         34.02237        46.68963        -0.79002
C         35.29157        48.85020        -0.81308
C         34.07071        48.11788        -0.65048
C         35.34733        50.27495        -0.66718
C         34.16776        50.98526        -0.47412
C         35.46475        53.15616        -0.56747
C         34.11174        52.48886        -0.50627
C         35.50963        54.55253        -0.56083
C         37.77070        18.78360        -0.81029
C         36.54864        18.10451        -0.78588
C         37.77068        20.19962        -0.71925
C         36.54200        20.90354        -0.75024
C         37.80809        23.08457        -0.61838
C         36.55145        22.37779        -1.06429
C         37.80495        24.48426        -0.55157
C         36.55316        25.22970        -0.95832
C         37.72316        27.37720        -0.41044
C         36.55862        26.67938        -0.54456
C         37.74927        28.83289        -0.45045
C         36.53131        29.53225        -0.67409
C         37.78883        31.65800        -0.78792
C         36.55056        30.95514        -0.82599
C         37.78767        33.07852        -0.91828
C         36.55293        33.78581        -1.02340
C         37.79135        35.92080        -1.12753
C         36.55686        35.21542        -1.08484
C         37.78606        37.34307        -1.30499
C         36.55499        38.04923        -1.33767
C         37.77211        40.27658        -1.61704
C         36.47428        39.51903        -1.70861
C         37.75301        41.65875        -1.68503
C         36.46531        42.40158        -1.67207
C         37.46108        44.70514        -2.23133
C         36.34310        43.85897        -1.83381
C         37.69378        45.98559        -1.80423
C         36.46541        46.74814        -1.53482
C         37.86547        48.80358        -1.01175
C         36.54291        48.09295        -0.92453
C         37.83737        50.27781        -0.96878
C         36.63760        50.97303        -0.78285
C         37.90263        53.11664        -0.85854
C         36.66161        52.41597        -0.72692
C         37.93152        54.54526        -0.81157
C         36.71869        55.23850        -0.66883
C         40.23212        15.94134        -0.54962
C         39.08433        16.59386        -0.82401
C         40.27656        18.78569        -0.55266
C         39.07046        18.07172        -1.12292
C         40.20942        20.18742        -0.32270
C         39.01820        20.91536        -0.49391
C         40.19349        23.07914        -0.08945
C         39.00057        22.35606        -0.35902
C         40.21231        24.49524        -0.12283
C         38.99444        25.19248        -0.29610
C         40.24721        27.38609        -0.19800
C         38.96061        26.65594         0.04211
C         40.23954        28.78817        -0.32677
C         38.99159        29.51971        -0.45987
C         40.25570        31.64714        -0.73359
C         39.02280        30.94283        -0.64555
C         40.26865        33.07262        -0.92359
C         39.02885        33.78635        -0.94677
C         40.26541        35.91462        -1.09256
C         39.03043        35.20786        -1.06678
C         40.24129        37.34152        -1.18069
C         39.02984        38.03488        -1.36428
C         40.20926        40.17516        -1.01417
C         39.06714        39.50477        -1.74981
C         40.18308        41.67620        -0.90125
C         39.03983        42.35770        -1.53826
C         40.33809        44.49677        -1.53702
C         39.30030        43.61385        -2.01847
C         40.28638        45.89636        -1.60140
C         39.04081        46.68451        -2.05871
C         40.27669        48.78303        -1.42322
C         39.06826        48.10506        -1.50431
C         40.30235        50.22405        -1.24998
C         39.08757        50.96402        -1.11044
C         40.36365        53.07230        -1.17135
C         39.11687        52.38325        -1.04644
C         40.39945        54.50049        -1.12427
C         39.20143        55.24958        -0.93153
C         40.51750        57.31029        -0.93182
C         39.28902        56.65305        -0.84970
C         42.67960        15.95843        -0.17695
C         41.48952        16.64695        -0.38254
C         42.71722        18.78698        -0.07234
C         41.47750        18.08415        -0.35201
C         42.70148        20.15832         0.13345
C         41.41664        20.85181         0.20055
C         42.70270        23.09545         0.27485
C         41.41502        22.37537         0.31548
C         42.68904        24.52035         0.15750
C         41.45648        25.22547         0.02471
C         42.69268        27.37487        -0.00209
C         41.45907        26.65523        -0.07252
C         42.67648        28.78839        -0.09257
C         41.48314        29.49796        -0.31125
C         42.70876        31.59274        -0.79867
C         41.50650        30.93641        -0.58011
C         42.70896        32.94171        -1.48811
C         41.49708        33.77769        -1.09261
C         42.75424        35.93546        -1.16381
C         41.51693        35.19642        -1.12740
C         42.76770        37.34204        -1.06043
C         41.50434        38.06500        -1.08819
C         42.74464        40.19942        -1.03758
C         41.49165        39.44142        -1.01998
C         42.72323        41.69915        -0.87462
C         41.44456        42.42264        -0.81299
C         42.68680        44.53731        -0.74714
C         41.48967        43.81123        -0.99755
C         42.70571        45.92164        -0.96059
C         41.49560        46.62517        -1.32619
C         42.75722        48.75370        -1.25716
C         41.52543        48.04423        -1.39437
C         42.77621        50.17094        -1.31431
C         41.54283        50.90850        -1.30081
C         42.82186        53.03141        -1.43695
C         41.57220        52.33705        -1.29146
C         42.84424        54.43395        -1.49796
C         41.64839        55.17556        -1.27923
C         42.99624        57.25200        -1.14150
C         41.70171        56.59557        -1.14808
C         43.89608        16.64458         0.01693
C         45.20652        18.76479         0.17841
C         43.95030        18.03461         0.05547
C         45.20786        20.18115         0.27469
C         43.92327        20.89512         0.62626
C         45.13525        23.08285         0.23326
C         43.91799        22.38190         0.30331
C         45.15743        24.49867         0.30186
C         43.92560        25.23831         0.24170
C         45.15826        27.38196         0.25544
C         43.92782        26.66340         0.18217
C         45.21191        28.77990         0.09992
C         43.93134        29.57934         0.17319
C         45.29467        31.52731        -0.77401
C         43.97242        30.83471        -0.67358
C         45.34305        32.98925        -1.09291
C         44.04572        33.70952        -1.42072
C         45.28565        35.90667        -0.84813
C         44.04689        35.20940        -1.30240
C         45.31852        37.39784        -1.08528
C         43.98863        38.07842        -0.89632
C         45.19053        40.23882        -0.57027
C         44.00333        39.48143        -0.79704
C         45.14602        41.67196        -0.39390
C         43.94443        42.37281        -0.46231
C         45.14694        44.54368        -0.25750
C         43.84201        43.82488        -0.08162
C         45.15294        45.93117        -0.47107
C         43.94313        46.64454        -0.79740
C         45.22943        48.74349        -0.95798
C         43.98500        48.03580        -1.02309
C         45.25404        50.14803        -1.16130
C         44.02723        50.87394        -1.32296
C         45.31174        52.97512        -1.54107
C         44.05350        52.28242        -1.45589
C         45.36589        54.37397        -1.69569
C         44.09638        55.16306        -1.93266
C         44.13092        56.58511        -1.43265
C         47.64202        18.79156         0.12388
C         46.44691        18.09318         0.10356
C         47.65307        20.20382         0.12050
C         46.41432        20.88926         0.18866
C         47.66329        23.07922         0.38388
C         46.41923        22.37099        -0.09369
C         47.62697        24.46502         0.59644
C         46.40205        25.17173         0.50904
C         47.65879        27.38351         0.78378
C         46.37437        26.63576         0.64702
C         47.74010        28.73764         0.11243
C         46.43843        29.48957         0.07438
C         47.67437        31.62271         0.07847
C         46.48957        30.88392        -0.16535
C         47.69172        33.05395         0.01412
C         46.53131        33.76890        -0.59610
C         47.56616        35.98437         0.10327
C         46.40633        35.24209        -0.45947
C         47.64826        37.44818        -0.09853
C         46.47268        38.13543        -0.44435
C         47.62215        40.26999        -0.03266
C         46.43347        39.54811        -0.36137
C         47.59728        41.70072         0.04468
C         46.37089        42.39539        -0.10773
C         47.58725        44.53958         0.06547
C         46.36003        43.82105        -0.08850
C         47.58453        45.95895        -0.01747
C         46.39074        46.64804        -0.37037
C         47.66101        48.74838        -0.42968
C         46.43954        48.03883        -0.63330
C         47.81617        50.10727        -1.06351
C         46.49718        50.85427        -1.19037
C         47.88240        52.84991        -1.68654
C         46.52764        52.21245        -1.45629
C         47.81463        54.34205        -1.79970
C         46.63678        55.02243        -1.83376
C         50.13691        20.30125        -0.09947
C         48.90222        20.95692         0.10699
C         50.15219        23.06980         0.44985
C         48.90119        22.36321         0.34217
C         50.16989        24.46915         0.73307
C         48.87952        25.15973         1.09688
C         50.10492        27.33807         0.91549
C         48.93667        26.63855         0.80933
C         50.00075        28.79756         1.34211
C         48.90627        29.54961         0.60600
C         50.07810        31.68062         0.79422
C         48.86140        30.92506         0.54929
C         50.07371        33.09309         0.65396
C         48.84183        33.76730         0.35714
C         50.08589        35.99136         0.57750
C         48.80959        35.24201         0.49529
C         50.08628        37.41674         0.44954
C         48.85124        38.13889         0.17386
C         50.06083        40.30791         0.32016
C         48.85131        39.57083         0.14496
C         50.04678        41.70865         0.38957
C         48.81096        42.42318         0.26989
C         50.02497        44.58620         0.49297
C         48.80671        43.84505         0.29282
C         49.99610        46.00835         0.52459
C         48.77314        46.69629         0.26844
C         49.83745        48.90089         0.88245
C         48.75715        48.11696         0.16237
C         49.79570        50.38964         0.52302
C         48.84845        50.95668        -0.35274
C         49.66432        53.20818         0.12124
C         48.83142        52.34684        -0.59913
C         51.33468        20.98961        -0.06076
C         52.62533        23.09417         0.29920
C         51.37595        22.37733         0.22681
C         52.62496        24.49542         0.56367
C         51.37133        25.18618         0.76149
C         52.56732        27.35489         0.91494
C         51.38113        26.63999         0.91468
C         52.58477        28.80598         0.93207
C         51.36635        29.55403         1.45964
C         52.49325        31.71419         0.91932
C         51.29251        30.99339         0.98796
C         52.49662        33.12393         0.91297
C         51.28542        33.83048         0.81575
C         52.52418        36.00395         0.84601
C         51.28399        35.28794         0.75757
C         52.52192        37.43065         0.75857
C         51.30284        38.12109         0.54426
C         52.54201        40.32421         0.79212
C         51.37325        39.58415         0.18302
C         52.48171        41.72909         0.84080
C         51.27420        42.44979         0.59649
C         52.48075        44.61936         0.80284
C         51.25118        43.86938         0.65980
C         52.45784        46.05258         0.74509
C         51.21866        46.77650         0.68832
C         52.44235        48.86052         1.09872
C         51.19907        48.18358         0.83483
C         52.55266        50.16999         1.64960
C         50.57985        51.29871         1.25197
C         50.52758        52.68331         1.08382
C         55.05841        23.12706         0.17752
C         53.86834        22.43677         0.11316
C         55.08165        24.52077         0.45124
C         53.85697        25.19410         0.63797
C         55.07814        27.37379         0.53634
C         53.88506        26.63681         1.07665
C         54.98493        28.81856         0.13099
C         53.74312        29.49921         0.67766
C         55.02436        31.72711         0.47623
C         53.73468        30.97396         0.60509
C         55.04787        33.16399         0.81349
C         53.77501        33.83734         1.27123
C         54.96921        36.01085         1.01824
C         53.75659        35.30993         0.97413
C         54.94520        37.43902         1.06258
C         53.75406        38.15253         0.93375
C         54.97052        40.30396         1.27228
C         53.74340        39.61247         1.04460
C         54.95808        41.75882         1.53168
C         53.66318        42.49373         1.28077
C         54.95361        44.62955         0.93621
C         53.69729        43.94592         1.01822
C         54.93152        46.04920         0.75007
C         53.69253        46.75655         0.75853
C         54.92650        48.89362         0.90881
C         53.68815        48.17967         0.88381
C         54.94017        50.24786         1.29893
C         53.76816        50.85029         1.74700
C         57.58191        24.60183         0.42598
C         56.33380        25.25807         0.48240
C         57.52945        27.43590         0.29611
C         56.29230        26.69731         0.43368
C         57.52575        28.86496         0.33644
C         56.28211        29.58300         0.38478
C         57.52422        31.71089         0.53676
C         56.29566        30.96801         0.48706
C         57.50943        33.13829         0.66081
C         56.24106        33.84950         0.84879
C         57.43600        36.01185         0.91183
C         56.24211        35.29770         1.01021
C         57.43810        37.44033         0.88265
C         56.22282        38.14064         1.42259
C         57.42288        40.29911         0.97779
C         56.19929        39.61907         1.17833
C         57.51465        41.75142         1.24160
C         56.27134        42.55598         1.64659
C         57.40434        44.63296         0.68440
C         56.19483        43.93280         0.98398
C         57.38218        46.05517         0.50483
C         56.15628        46.77089         0.62020
C         57.37742        48.88289         0.37957
C         56.15737        48.19368         0.61792
C         58.76520        25.31171         0.31631
C         59.98144        27.46397         0.19670
C         58.75957        26.73323         0.25490
C         59.97781        28.83687         0.24415
C         58.75991        29.57241         0.34111
C         59.96580        31.75948         0.46961
C         58.76148        31.01299         0.44066
C         59.94140        33.13606         0.58929
C         58.72249        33.84008         0.67662
C         59.74048        36.05964         0.00212
C         58.78035        35.32905         0.91606
C         59.65070        37.39598        -0.15443
C         58.54985        38.15854         0.42926
C         59.64811        40.34915        -0.08906
C         58.56196        39.59868         0.49183
C         59.68590        41.70838        -0.08913
C         58.72891        42.48441         0.71073
C         59.82726        44.67977         0.27805
C         58.65537        43.95933         0.55235
C         59.80972        46.06370         0.14499
C         58.59190        46.77179         0.26804
C         58.55328        48.19477         0.17871
O         41.21680        21.53210         1.51771
O         35.55694        46.70622        -2.69035
O         54.21658        31.44058        -0.74845
O         28.46114        24.86025         1.19594
O         42.83714        41.07124        -2.24482
O         39.86941        40.80064         0.25825
O         47.81185        35.64476         1.52389
O         48.27543        49.82960        -2.39012
O         46.85980        27.19213         1.98540
O         37.39173        48.16349         0.27299
O         51.45232        50.79987         2.24298
O         44.75608        30.73041        -1.89927
O         58.65671        42.04308         2.11206
O         46.40989        33.33408        -2.01607
O         27.70435        45.36478         0.26706
O         33.53487        31.26564        -2.61520
O         54.07234        42.10646         2.66009
O         27.38204        45.90046         3.76770
O         44.19296        34.53884        -2.61480
O         38.45186        44.10751        -3.01541
O         29.80008        33.68043         1.67888
H         29.03635        33.90979         2.25076
O         48.05231        28.39041        -1.28880
H         47.96816        29.20801        -1.82548
O         48.77574        25.11005         2.56554
H         48.08553        25.77234         2.81421
O         43.54779        43.85277         1.37052
H         43.54957        44.79281         1.65106
O         35.90263        40.20807         0.50456
H         35.24376        40.66546         1.06729
O         25.10442        29.29573        -1.84068
H         24.42425        28.65283        -2.16886
O         49.44682        48.82679         2.29611
H         50.08676        49.38652         2.79370
O         54.81889        28.82033        -1.33041
H         54.64212        29.76337        -1.57596
O         36.58449        25.27459        -2.42733
H         36.62546        24.33357        -2.73762
O         46.49609        22.45082        -1.57668
H         47.35859        22.06396        -1.84164
O         25.95232        31.35639         2.33595
H         25.22761        31.76885         2.85377
O         45.58491        37.50574        -2.53577
H         45.43328        38.43968        -2.79595
O         31.00154        30.80492        -2.73857
H         31.80738        30.68599        -3.29406
O         39.39728        39.52984        -3.17944
H         40.29502        39.14710        -3.28815
O         36.58239        22.45819        -2.54917
H         35.83472        21.91860        -2.88587
O         56.45233        42.87683         3.04708
H         55.54901        42.94576         3.43872
O         33.29801        43.82353        -2.70384
H         33.93081        43.36656        -3.29861
O         56.32418        38.01504         2.90109
H         56.97906        38.67874         3.20779
O         43.83911        20.83983         2.09322
H         42.91927        21.12302         2.32427
O         51.66878        29.69707         2.88903
H         52.04430        28.84669         3.20387
O         54.09560        26.59038         2.55296
H         53.49107        25.90330         2.90826
O         42.48787        32.63155        -2.89831
H         42.95539        33.33001        -3.41483
O         49.43331        28.70335         2.68534
H         49.87796        29.39349         3.23433
O         31.20733        35.39604        -2.48474
H         31.92274        34.96053        -2.99623
O         25.13912        37.57000        -0.75292
H         24.27676        37.11222        -0.85333
O         59.32379        35.47855         2.27307
H         59.30291        36.43520         2.48936
O         39.16421        46.83740        -3.50428
H         39.06494        45.93804        -3.89193
O         44.00472        55.26809        -3.40526
H         44.01606        54.35569        -3.76612
O         32.11422        50.51056        -1.64264
H         32.55755        49.94540        -2.31262
O         38.79761        26.68314         1.52549
H         39.58572        26.24237         1.91124
O         30.04707        42.13349         2.56178
H         30.93576        42.54599         2.61320
O         53.81975        33.73879         2.74875
H         54.51545        34.35515         3.06518
O         48.39826        52.40506        -2.96672
H         48.42013        51.39225        -2.94587
O         23.78190        26.93350        -2.10617
H         24.42650        26.37302        -2.59008
O         39.20107        18.17854        -2.59098
H         40.04623        17.74621        -2.83813
O         33.41071        52.89146        -1.72885
H         32.66740        52.24739        -1.85481
O         35.26184        27.45041         1.25580
H         36.17126        27.67478         1.55261
O         36.04132        39.56680        -3.09812
H         36.81465        39.33820        -3.65729
O         51.66307        39.59844        -1.27346
H         50.90119        39.17615        -1.72543
O         43.83751        30.06925         1.55379
H         43.91070        29.29630         2.15314
H         22.02248        26.89484         0.23501
H         22.16256        29.19149         0.99701
H         22.18172        31.13275         1.29487
H         22.30147        33.51439         1.64666
H         22.32756        35.40021         1.73101
H         22.41453        37.77905         2.15097
H         22.50797        39.63938         2.52208
H         22.64950        42.00185         3.03794
H         22.78648        43.86766         3.47846
H         22.92161        46.25968         3.92932
H         25.24480        23.52027        -0.13443
H         23.13950        24.75566        -0.37691
H         26.20814        49.69215         3.32480
H         24.23800        48.39991         3.94536
H         26.92883        22.51137        -0.60658
H         27.81982        50.69206         2.76259
H         29.03458        21.33160        -0.65724
H         29.80367        51.91367         2.08129
H         32.78411        19.16629        -0.63601
H         30.68025        20.36095        -0.46604
H         33.41923        54.02650         0.99913
H         31.59772        52.70940         1.91982
H         34.41524        18.21789        -0.60550
H         34.57412        55.12348        -0.48446
H         36.51550        17.00903        -0.85144
H         36.70216        56.33620        -0.65591
H         40.23536        14.84759        -0.42593
H         38.16178        16.01421        -0.96804
H         40.55721        58.40391        -0.82492
H         38.38492        57.25589        -0.69184
H         42.67522        14.85896        -0.17311
H         43.03423        58.31384        -0.85401
H         44.80769        16.04818         0.15538
H         45.09238        57.11694        -1.40737
H         48.58266        18.22581         0.10880
H         46.47976        16.99739         0.04138
H         48.75291        54.88080        -1.99897
H         46.65735        56.10795        -2.00707
H         50.15935        19.22521        -0.31555
H         49.62698        54.29330        -0.04929
H         52.26224        20.43387        -0.24808
H         51.16541        53.33490         1.69434
H         55.99628        22.58142         0.01068
H         53.89878        21.35906        -0.09215
H         55.88464        50.80489         1.34820
H         53.78441        51.86100         2.17423
H         57.62912        23.50555         0.47419
H         57.38423        49.98019         0.32965
H         59.72669        24.77943         0.28672
H         60.93121        26.91307         0.14002
H         60.93807        29.36803         0.21607
H         60.93737        31.25182         0.41517
H         60.88879        33.68956         0.64442
H         60.58183        35.50983        -0.44461
H         60.40789        37.91745        -0.75634
H         60.42817        39.80654        -0.63953
H         60.45560        42.23603        -0.66994
H         60.78261        44.14357         0.19221
H         60.74184        46.61475        -0.04311
H         59.48627        48.74065        -0.02215
