         324
 CSIRO Nanostructure Databank - Neutral Graphene Oxide Data Set
C          1.04943         3.12521        -0.61864
C         -0.00761         3.98474        -0.46424
C          1.05429         6.21478         0.16740
C         -0.01295         5.40073        -0.16325
C          1.07395         7.71303        -0.17989
C         -0.20640         8.46017         0.11241
C          0.97341        10.59667         0.56500
C         -0.25243         9.78138         0.33766
C          0.99281        12.04246         0.20251
C         -0.15070        12.79855         0.12679
C          1.06132        14.92708        -0.13462
C         -0.11761        14.21526        -0.03276
C          1.10733        16.38447        -0.14686
C         -0.06658        17.15903        -0.02413
C          1.11031        19.27569        -0.37673
C         -0.04874        18.56004        -0.08304
C          1.15378        20.73094        -0.37056
C         -0.05378        21.48005        -0.28753
C          1.16654        23.58785        -0.23007
C         -0.04710        22.85980        -0.26133
C          1.18754        25.03773        -0.26973
C          0.00312        25.80883        -0.39257
C          1.28756        27.87376        -0.52042
C          0.04911        27.18818        -0.49304
C          1.33068        29.32410        -0.51018
C          3.60530         3.24847        -0.79518
C          2.39842         3.49306        -0.22530
C          3.53049         6.29765         0.23955
C          2.33866         5.63779         0.43975
C          3.50508         7.73902         0.37571
C          2.31315         8.41401         0.34379
C          3.55434        10.63520         0.51680
C          2.27907         9.86784         0.63798
C          3.54773        11.97005         0.24681
C          2.28787        12.66855        -0.11998
C          3.60921        14.92202        -0.17883
C          2.32591        14.18980        -0.30814
C          3.59164        16.33939        -0.30451
C          2.34943        17.04692        -0.32495
C          3.66381        19.23948        -0.69350
C          2.34090        18.49784        -0.60695
C          3.69341        20.77471        -0.73932
C          2.37563        21.43939        -0.37884
C          3.64254        23.55283        -0.03366
C          2.39176        22.85666        -0.22913
C          3.66496        24.97634        -0.03079
C          2.43682        25.71482        -0.24966
C          3.77868        27.80099        -0.54515
C          2.47841        27.12206        -0.42441
C          3.79578        29.34981        -0.54793
C          2.49179        30.02255        -0.44231
C          6.11490         3.42321        -0.37749
C          4.82031         4.09754        -0.54035
C          6.05868         6.21297         0.29784
C          4.78718         5.57174        -0.08230
C          6.04669         7.60778         0.78273
C          4.75768         8.38848         0.84171
C          6.10536        10.57201         0.67680
C          4.79748         9.90290         0.88204
C          6.08784        12.05820         0.64181
C          4.78116        12.78485         0.41726
C          6.05944        14.90201         0.01725
C          4.81996        14.21728         0.01375
C          6.06282        16.33192        -0.12127
C          4.84025        17.05578        -0.27821
C          6.06687        19.15988        -0.01554
C          4.87820        18.47875        -0.32717
C          6.02253        20.59202         0.33848
C          4.84226        21.40451         0.00965
C          6.07626        23.46865         0.64172
C          4.83603        22.77218         0.21160
C          6.07462        24.97123         0.60915
C          4.87052        25.69957         0.18039
C          6.15505        27.83652         0.18006
C          4.97843        27.10292        -0.05433
C          6.20172        29.27348         0.08459
C          5.02824        30.00373        -0.12816
C          8.56325         3.42842        -0.25555
C          7.28272         4.12382        -0.19221
C          8.51250         6.29444         0.05025
C          7.26420         5.56095         0.06182
C          8.56969         7.67006         0.24006
C          7.35203         8.39695         0.67498
C          8.54201        10.60393         0.28798
C          7.27296         9.87657         0.54127
C          8.56243        12.08713         0.39153
C          7.34358        12.78400         0.36749
C          8.55978        14.84987        -0.02795
C          7.32130        14.18424         0.15550
C          8.54374        16.29467        -0.26930
C          7.28892        17.04677        -0.08016
C          8.55174        19.17546         0.20699
C          7.30160        18.45290         0.05255
C          8.60317        20.55685         0.34852
C          7.36004        21.30884         0.57403
C          8.58012        23.43731         0.34982
C          7.38226        22.77345         0.48761
C          8.62982        24.91681         0.23357
C          7.36794        25.68478         0.36619
C          8.68576        27.86380         0.87284
C          7.36969        27.14924         0.67236
C          8.69953        29.31375         0.45889
C          7.46695        29.93757         0.20172
C         11.01779         3.39812        -0.78756
C          9.74559         4.09190        -0.33360
C         11.06241         6.28990        -0.07310
C          9.74242         5.57097        -0.30556
C         11.04259         7.70069         0.33662
C          9.83762         8.36289         0.32622
C         11.07515        10.57613         0.69569
C          9.82721         9.84636         0.31184
C         11.05600        12.07596         0.60863
C          9.78820        12.77906         0.30805
C         11.08410        14.88371         0.07908
C          9.80196        14.17653         0.10439
C         11.12175        16.27442         0.01996
C          9.85954        17.01726        -0.17611
C         11.14358        19.16351         0.25370
C          9.80888        18.42149         0.28302
C         11.04977        20.59939         0.04292
C          9.84465        21.28385         0.20098
C         11.03300        23.46174         0.17205
C          9.83311        22.73305         0.21017
C         11.08316        24.86447         0.46933
C          9.91051        25.60612         0.51094
C         11.14554        27.54550         1.23957
C          9.92616        27.00114         0.86336
C         11.15828        29.69627         0.68824
C          9.87289        30.06819         0.19893
C         13.51083         3.42199        -0.54925
C         12.32050         4.07553        -0.38958
C         13.57365         6.22127         0.30800
C         12.28492         5.46416         0.14021
C         13.58576         7.70686         0.40234
C         12.30884         8.37625         0.84224
C         13.55460        10.57701         0.61289
C         12.36591         9.87124         0.60363
C         13.55358        12.03757         0.51571
C         12.34286        12.76120         0.40307
C         13.57269        14.85943         0.09936
C         12.33168        14.15931         0.18312
C         13.59166        16.28377        -0.07284
C         12.36282        17.00482        -0.03946
C         13.55858        19.15331        -0.41295
C         12.36777        18.42511        -0.11372
C         13.52287        20.55750        -0.50853
C         12.25021        21.28600        -0.41740
C         13.57013        23.49647        -0.19837
C         12.26469        22.80609        -0.28814
C         13.60858        24.84297         0.19766
C         12.42000        25.44675         0.89909
C         13.59349        27.69810         0.72146
C         12.42912        26.95891         0.93755
C         13.59950        29.22683         0.95126
C         12.43169        29.91359         0.23949
C         16.01268         3.47421        -0.67665
C         14.79815         4.08735        -0.45083
C         16.05484         6.30824        -0.21480
C         14.76800         5.55244        -0.27026
C         16.04003         7.65488         0.43120
C         14.76357         8.41445         0.40682
C         16.05054        10.53092         0.74722
C         14.83424         9.85846         0.60588
C         16.03693        12.03043         1.00567
C         14.78725        12.74688         0.51371
C         16.04887        14.90852         0.36817
C         14.78673        14.13580         0.30942
C         16.04059        16.28761        -0.17232
C         14.83298        16.98722        -0.27600
C         16.00416        19.14576        -0.64496
C         14.82139        18.43029        -0.51753
C         16.04013        20.59020        -0.92909
C         14.68737        21.35591        -0.89224
C         15.97130        23.50884        -0.67367
C         14.74125        22.80825        -0.59632
C         15.94986        24.91778        -0.46212
C         14.79594        25.59087         0.03300
C         15.99470        27.76060         0.07306
C         14.80258        27.02944         0.28489
C         16.02298        29.21119         0.21884
C         14.87546        29.89790         0.54953
C         18.54066         3.50685        -0.82955
C         17.27048         4.19576        -0.64308
C         18.54454         6.32544        -0.35149
C         17.29762         5.54567        -0.33224
C         18.60453         7.61428         0.41404
C         17.32506         8.36868         0.66113
C         18.57265        10.50345         0.72524
C         17.33701         9.85233         0.71629
C         18.60401        11.99711         1.00766
C         17.32505        12.67815         0.55484
C         18.62051        14.77315         0.03377
C         17.34542        14.12659         0.47032
C         18.61478        16.23681        -0.32917
C         17.30211        16.93920        -0.52896
C         18.52631        19.21633        -0.43600
C         17.30085        18.45726        -0.69011
C         18.50595        20.63086        -0.51234
C         17.27543        21.34837        -0.74712
C         18.46027        23.48357        -0.80845
C         17.24824        22.78478        -0.81484
C         18.50351        24.94331        -0.91392
C         17.14149        25.71433        -0.75180
C         18.42721        27.80853        -0.41032
C         17.20059        27.11555        -0.33416
C         18.44792        29.24210        -0.23041
C         17.24561        29.91694         0.00983
C         19.73619         4.15296        -0.82401
C         21.09977         6.32868        -0.40591
C         19.82588         5.62062        -0.69789
C         21.12634         7.61370        -0.00115
C         19.91116         8.32659         0.49786
C         21.01878        10.54159         0.55961
C         19.84600         9.81334         0.62480
C         21.03917        11.96295         0.50598
C         19.88647        12.70165         0.60819
C         21.03334        14.91973         0.42909
C         19.89494        14.14066         0.42856
C         20.98162        16.34070         0.26505
C         19.83527        17.01898        -0.06318
C         21.00752        19.25379        -0.29754
C         19.75929        18.52735         0.11174
C         20.96990        20.60155        -0.52342
C         19.75039        21.33707        -0.51533
C         20.84161        23.55763        -0.11139
C         19.79822        22.79383        -0.89155
C         20.80058        24.91334        -0.01191
C         19.70192        25.67549        -0.53416
C         20.88717        27.84675        -0.49672
C         19.68277        27.10344        -0.51795
C         20.88088        29.24290        -0.41502
C         19.68666        29.94015        -0.28220
O          4.62145         9.10990         2.10007
O         18.69835        15.18983        -1.36918
O          6.86908         7.86297         1.95630
O          1.56385        10.26759         1.87885
O         10.95335        11.37783         1.91767
O          7.91246        25.42032        -0.97130
O          4.84448         5.19783        -1.52402
O         19.37865         7.56771         1.65653
O          6.54872        20.81971         1.69332
O          9.26166        16.76691        -1.48570
O         19.07630         6.38701        -1.72494
O          7.80266        27.55533         2.01129
O         10.54999        18.66299         1.51180
O          3.02386        18.74905        -1.91803
O         15.30765        20.96283        -2.14742
O         16.60640         7.70889         1.78147
O         17.75053        25.47492        -2.04569
O          2.32856        13.26838        -1.46042
O         10.51849         6.11984        -1.43493
O         17.32882        17.54743        -1.86428
O         11.07336        28.81779         1.81105
O         15.25007         6.29072        -1.44987
O         16.73886        14.80923         1.69111
O          5.34321        12.62745         1.77590
O          5.96282        24.26109         1.88331
O          9.23848        10.25260        -0.98489
O         12.05024        22.16151        -1.58992
O         12.93254         5.57504         1.45252
O          3.95765        28.54954        -1.77923
O          2.40523         4.32858         0.91253
O         13.52344        29.45790         2.38374
H         12.59968        29.24641         2.66179
O          3.93205        21.13231        -2.13899
H          3.43796        20.47200        -2.68010
O          1.21929         7.72859        -1.64181
H          0.49232         7.19245        -2.02423
O         12.23945         8.22394         2.29857
H         13.09289         8.52263         2.67916
O         19.63348        18.70430         1.58777
H         19.76802        19.65800         1.77695
O         12.56971        25.01176         2.30445
H         11.86190        25.44586         2.82746
O         20.21565        22.84593        -2.30654
H         19.48765        22.46765        -2.84457
O         15.96481        12.19936         2.47833
H         16.06412        13.17290         2.63288
O         10.96861         3.36826        -2.22940
H         10.87364         4.30126        -2.52826
O         18.61274        12.11211         2.47323
H         17.72011        11.82175         2.79494
H          0.86731         2.13938        -1.07301
H         -0.99254         3.59735        -0.77118
H         -0.97611         5.89385        -0.37804
H         -1.15195         7.90711        -0.00261
H         -1.22961        10.27617         0.45009
H         -1.12963        12.33077         0.30220
H         -1.07818        14.74471         0.02297
H         -1.03013        16.66587         0.15723
H         -0.99293        19.08917         0.10253
H         -1.02116        20.96126        -0.29579
H         -1.00889        23.38930        -0.25181
H         -0.97670        25.31312        -0.40386
H         -0.88485        27.76379        -0.56478
H          0.37003        29.85853        -0.46432
H          3.67850         2.56490        -1.65445
H          2.47771        31.11369        -0.30167
H          6.14558         2.32569        -0.45050
H          5.03258        31.09578         0.00999
H          8.54249         2.33247        -0.35884
H          7.48194        31.01592        -0.01918
H         11.02118         2.33387        -0.43972
H          9.76946        30.99949        -0.37804
H         13.50369         2.37085        -0.87731
H         12.62261        30.53593        -0.64523
H         16.04373         2.39182        -0.87347
H         14.91219        30.99336         0.64744
H         18.51714         2.41280        -0.94488
H         17.24851        31.01158         0.12016
H         20.67214         3.57781        -0.88928
H         22.04108         5.81173        -0.64851
H         22.10107         8.11157         0.10901
H         21.98136        10.01954         0.47810
H         22.00152        12.45691         0.31103
H         22.00522        14.47285         0.68139
H         21.90256        16.89928         0.48496
H         21.96690        18.72050        -0.33579
H         21.90038        21.13605        -0.76362
H         21.67664        23.00316         0.34105
H         21.61403        25.44369         0.50523
H         21.84587        27.31769        -0.58616
H         21.83354        29.78998        -0.43974
H         19.68837        31.03489        -0.18359
