         210
 CSIRO Nanostructure Databank - Neutral Graphene Oxide Data Set
C         30.78410        31.48768        -1.77411
C         30.82403        32.74003        -1.61583
C         30.73071        35.86039        -1.47473
C         30.72010        37.08312        -1.24460
C         30.64726        40.20205        -1.38250
C         30.53272        41.43319        -1.10358
C         32.78859        28.64150        -0.53102
C         31.92560        29.24956        -1.19690
C         33.05069        31.36446        -0.95059
C         31.84982        30.65786        -1.39508
C         33.05230        32.82104        -0.89427
C         31.85377        33.55503        -1.14385
C         32.90004        35.79912        -0.29116
C         31.71222        34.98487        -0.81688
C         32.94441        37.28376        -0.47055
C         31.77720        37.98373        -0.90033
C         32.95087        40.13061        -0.74385
C         31.76739        39.38365        -1.00080
C         32.98900        41.61873        -1.03003
C         31.55268        42.33622        -0.82703
C         32.80118        44.30860        -0.22901
C         31.74414        43.66653        -0.50457
C         35.24953        27.37405         1.38420
C         34.67367        28.65155         1.17745
C         33.88720        29.21160         0.17553
C         35.41976        31.12426        -0.34719
C         34.10752        30.58754        -0.29038
C         35.48266        33.17103        -0.92655
C         34.24740        33.64785        -0.61546
C         35.43759        35.87454        -0.21828
C         34.18923        35.03937         0.03273
C         35.40216        37.28982        -0.10473
C         34.14031        38.01425        -0.26254
C         35.34636        40.20276        -0.13284
C         34.14316        39.44556        -0.39260
C         35.37325        41.61819        -0.16071
C         34.15758        42.35103        -0.39963
C         35.32051        44.50825        -0.06951
C         34.12232        43.76143        -0.20724
C         35.51396        45.87966         0.05922
C         37.67725        27.66764         1.92304
C         36.35911        27.13625         1.92182
C         37.72653        29.07603         1.61202
C         36.56200        29.86189         1.37700
C         37.85300        31.66461         0.30915
C         36.59216        30.92098         0.43632
C         37.92383        33.03418        -0.13803
C         36.81234        33.83109        -0.83996
C         37.88554        35.96677        -0.26829
C         36.68696        35.24854        -0.35138
C         37.87371        37.36024        -0.02958
C         36.61676        38.01250         0.01169
C         37.86842        40.23868         0.39285
C         36.55683        39.46832         0.25761
C         37.85680        41.69683         0.16645
C         36.62835        42.33708        -0.01155
C         37.94254        44.57979         0.05457
C         36.61975        43.80064        -0.21012
C         37.88045        46.00812         0.44701
C         36.59564        46.51037         0.27290
C         39.95104        24.73308         1.86349
C         39.00082        25.50434         2.08556
C         40.14311        27.56594         1.83471
C         38.86783        26.92616         1.96657
C         40.17719        28.95247         1.55941
C         38.98961        29.68957         1.32869
C         40.30116        31.73777         0.77296
C         39.02668        31.05633         0.83862
C         40.34353        33.11768         0.36184
C         39.13092        33.74413        -0.05127
C         40.41915        35.96264        -0.28952
C         39.14466        35.19536        -0.40989
C         40.37507        37.43004        -0.06751
C         39.12901        38.10534         0.06384
C         40.35565        40.23480         0.24437
C         39.13740        39.50671         0.22099
C         40.34290        41.67208         0.37673
C         39.11858        42.39910         0.28622
C         40.32333        44.50255         0.80769
C         39.15392        43.82163         0.41048
C         40.29954        45.93677         1.08086
C         39.04623        46.64358         0.94019
C         40.21012        48.63782         1.62464
C         39.18191        48.00532         1.26848
C         42.48469        24.60844         1.15886
C         41.34216        25.16743         1.87729
C         42.63147        27.44787         1.28552
C         41.40876        26.77582         1.83225
C         42.66127        28.83051         1.26843
C         41.49062        29.68246         1.70425
C         42.76115        31.72977         0.93155
C         41.49921        31.06392         1.07948
C         42.80171        33.16827         0.71602
C         41.58260        33.84420         0.40746
C         42.84601        35.94473         0.14602
C         41.64620        35.24182         0.11641
C         42.86782        37.38745        -0.31825
C         41.58508        38.12794        -0.00438
C         42.84071        40.25822         0.24666
C         41.59557        39.53760         0.16243
C         42.82131        41.67027         0.45663
C         41.57613        42.37260         0.53651
C         42.78935        44.45445         1.07728
C         41.57000        43.77781         0.83537
C         42.74972        45.81022         1.74493
C         41.48168        46.62496         1.46806
C         42.77100        48.61421         2.04077
C         41.48348        48.04336         1.73007
C         43.47588        25.28862         0.84174
C         44.90616        27.30323         0.23207
C         43.76695        26.68527         0.75945
C         45.10275        28.76946         0.46935
C         43.92295        29.53135         1.02817
C         45.27225        31.61698         0.87197
C         43.94291        30.98764         0.89965
C         45.30369        33.15270         0.93186
C         44.02511        33.87241         0.73833
C         45.29929        35.99696         0.43836
C         44.06815        35.26736         0.43463
C         45.29573        37.40155         0.32796
C         44.10462        38.13311         0.11474
C         45.32085        40.28721         0.32362
C         44.07908        39.54601         0.22949
C         45.29666        41.72043         0.40404
C         44.05131        42.39942         0.55028
C         45.27447        44.52789         0.86795
C         44.03100        43.80230         0.84861
C         45.22516        45.96064         1.14079
C         44.05396        46.59313         1.50950
C         43.80616        47.94973         1.77615
C         47.03093        27.45758        -0.71402
C         45.96042        26.74918        -0.54307
C         47.39610        28.76294        -0.60626
C         46.12142        29.57803        -0.35522
C         47.58536        31.63028        -0.08074
C         46.41396        30.93629         0.25276
C         47.64159        33.09183         0.05197
C         46.53515        33.80429         0.48346
C         47.81746        35.95359         0.30964
C         46.58043        35.26757         0.81901
C         47.86734        37.41255         0.54403
C         46.55672        38.15512         0.54145
C         47.78839        40.31916         0.18034
C         46.55047        39.61497         0.32636
C         47.76449        41.75804         0.16614
C         46.52712        42.44356         0.38058
C         47.75284        44.58359         0.43991
C         46.49950        43.86924         0.56092
C         47.57367        45.97891         0.67499
C         46.51717        46.55326         0.99514
C         49.81331        28.86387        -1.30978
C         48.74236        29.38284        -0.38729
C         49.80414        31.64468        -1.17704
C         48.72448        30.92843        -0.62085
C         49.83819        33.10190        -1.07275
C         48.80938        33.81060        -0.42364
C         50.02696        36.01218        -0.75703
C         48.86460        35.26247        -0.27106
C         50.14101        37.41431        -0.55191
C         49.18078        38.15687         0.35416
C         50.18757        40.34599        -0.35681
C         49.01136        39.62854        -0.00834
C         50.20451        41.78826        -0.32222
C         48.98727        42.47875        -0.00545
C         50.22266        44.48166        -0.12267
C         48.94143        43.92184         0.11852
C         50.73006        29.51995        -1.81930
C         51.90143        31.76105        -2.37136
C         50.91046        30.93522        -1.86324
C         51.87072        33.02629        -2.23414
C         50.95650        33.86502        -1.61758
C         52.09231        36.11882        -1.88123
C         51.03991        35.27917        -1.45316
C         52.20180        37.35073        -1.66672
C         51.26845        38.16626        -0.98471
C         52.41523        40.44095        -1.04008
C         51.35025        39.58267        -0.76969
C         52.52337        41.69920        -0.95185
C         51.44120        42.52170        -0.59685
C         51.29717        43.92964        -0.44609
O         35.33561        29.62036         2.01200
O         45.06342        29.07215         1.87172
O         31.82976        35.31470         0.59847
O         47.24140        37.80789         1.82914
O         37.09763        39.83985         1.58109
O         45.50131        32.34512         2.12487
O         37.46434        44.28391        -1.30152
O         39.92271        35.53830        -1.61669
O         41.67965        25.94520         3.02011
O         35.59397        31.90757        -1.51707
O         45.45855        29.82742        -1.62759
H         46.12076        30.16776        -2.26535
O         49.11359        29.15802         0.96803
H         50.00528        29.53308         1.12176
O         42.71967        45.52304         3.17955
H         42.71322        46.38254         3.65393
O         41.65353        29.92204         3.14283
H         41.79649        29.05642         3.58243
O         33.19137        41.72605        -2.46564
H         33.33155        42.67101        -2.68942
O         42.94356        37.32972        -1.78789
H         42.13955        36.86324        -2.10624
O         49.83714        38.17583         1.65764
H         49.13023        38.32169         2.32714
O         34.20715        34.82272         1.46889
H         33.26741        34.73536         1.75517
O         37.25652        33.94580        -2.22982
H         37.14643        33.06030        -2.64026
O         46.61921        35.27085         2.28499
H         46.79062        36.20587         2.55971
