         324
 CSIRO Nanostructure Databank - Neutral Graphene Oxide Data Set
C         30.61861        57.18366        -0.51031
C         30.63591        58.59942        -0.37418
C         29.45185        59.33136        -0.09605
C         30.70073        61.40918        -0.09965
C         29.49197        60.71361         0.03565
C         33.01103        52.86842        -0.70265
C         33.01489        54.25566        -0.83734
C         31.70748        54.98856        -1.04488
C         33.01286        57.17099        -0.92845
C         31.78389        56.47692        -0.77705
C         33.07412        58.57911        -0.79743
C         31.87140        59.29897        -0.52081
C         33.14475        61.40875        -0.52085
C         31.89565        60.71924        -0.37406
C         35.39037        48.57331        -0.20256
C         35.37058        49.97391        -0.17972
C         34.20906        50.71508        -0.47048
C         35.46153        52.85494        -0.51690
C         34.21861        52.13705        -0.54454
C         35.47671        54.26885        -0.77351
C         34.24419        54.95378        -0.92029
C         35.56703        57.15113        -1.17991
C         34.23867        56.40268        -1.21004
C         35.56187        58.60700        -0.96125
C         34.33019        59.29537        -0.87963
C         35.59067        61.50562        -0.99459
C         34.31692        60.72941        -0.75955
C         37.95454        44.21745         0.16628
C         37.71695        45.62867         0.58002
C         36.55752        46.41586         0.07247
C         37.89739        48.51129         0.02446
C         36.56498        47.79449         0.05228
C         37.85237        49.99990         0.26855
C         36.55308        50.74892         0.36559
C         37.89114        52.81581        -0.17917
C         36.66378        52.16024        -0.18370
C         37.99973        54.18697        -0.80414
C         36.72312        54.98542        -0.78361
C         38.01454        57.10379        -0.70054
C         36.78878        56.38286        -0.87630
C         38.03124        58.53475        -0.67347
C         36.81374        59.27745        -0.79495
C         38.03622        61.38678        -0.53886
C         36.85020        60.71318        -0.73178
C         40.34912        39.98871         1.26669
C         40.19079        41.43144         1.33345
C         39.71432        42.24192         0.08862
C         40.21327        44.31230         1.08790
C         39.15438        43.59130         0.42607
C         40.13261        45.69767         1.49245
C         38.86816        46.43131         1.17605
C         40.20776        48.52498         0.92615
C         38.99619        47.86757         0.84899
C         40.33187        49.91533         0.32109
C         39.02937        50.67823         0.35926
C         40.31060        52.79438         0.35334
C         39.08263        52.12785         0.21937
C         40.42533        54.21628        -0.04155
C         39.19839        54.98340        -0.35484
C         40.55982        57.07999        -0.47484
C         39.22769        56.35485        -0.46200
C         40.48467        58.56640        -0.25960
C         39.26619        59.25155        -0.44556
C         40.49153        61.37404        -0.22312
C         39.27718        60.68675        -0.38357
C         42.89246        35.85768         0.57172
C         42.75304        37.26256         0.39821
C         41.60944        37.95315         0.84750
C         42.51929        40.09887         0.03103
C         41.46607        39.35476         0.67411
C         42.33308        41.59245        -0.27158
C         41.19313        42.25952         0.51090
C         42.67644        44.27076         1.07136
C         41.41837        43.62317         1.01583
C         42.70667        45.66583         1.28653
C         41.47170        46.43057         1.56486
C         42.66371        48.55578         1.19180
C         41.44338        47.87753         1.28660
C         42.70494        50.00988         1.13590
C         41.49656        50.70941         0.86550
C         42.67193        52.85363         1.28461
C         41.47416        52.10434         0.81914
C         42.75910        54.34068         1.08680
C         41.65406        54.98023         0.31809
C         42.90840        57.13500         0.41964
C         41.55179        56.47064         0.51097
C         42.93653        58.52128         0.18204
C         41.69810        59.24774        -0.04432
C         42.96593        61.35420         0.01515
C         41.72085        60.68254        -0.07469
C         45.35381        33.09751        -0.03258
C         44.20251        33.76180         0.38566
C         45.10264        35.85567        -0.51453
C         44.05736        35.15888         0.16110
C         44.92188        37.27374        -0.83522
C         43.79009        38.01079        -0.24384
C         44.84182        40.16624        -0.95664
C         43.67895        39.41135        -0.39132
C         44.83384        41.64685        -0.73529
C         43.67982        42.31950        -0.06753
C         45.19826        44.14457         0.80106
C         43.82727        43.53161         0.56052
C         45.19249        45.67333         1.00648
C         43.90519        46.41264         1.11948
C         45.09231        48.59550         0.85061
C         43.88407        47.80803         1.15369
C         45.16120        50.00185         1.24911
C         43.92136        50.71615         1.30274
C         45.16380        52.85087         1.39166
C         43.95680        52.14626         1.37607
C         45.24266        54.28628         1.26280
C         44.06823        55.01918         1.02728
C         45.35986        57.09477         0.67207
C         44.10159        56.41784         0.69588
C         45.40532        58.50297         0.40126
C         44.18028        59.21258         0.21704
C         45.42901        61.31757         0.20556
C         44.18618        60.64741         0.11958
C         46.39747        33.78920        -0.64819
C         47.43206        35.92135        -1.36583
C         46.30045        35.18704        -0.88655
C         47.43506        37.31890        -1.45059
C         46.15501        38.04477        -1.32433
C         47.35911        40.19092        -1.25408
C         46.17531        39.50893        -1.14472
C         47.42687        41.70816        -1.32912
C         46.12372        42.39988        -0.88445
C         47.54149        44.43105        -0.30589
C         46.20014        43.75200        -0.28404
C         47.63365        45.84137         0.09670
C         46.41924        46.46170         0.67665
C         47.64091        48.64888         0.67383
C         46.36106        47.93558         0.48407
C         47.63780        49.93093         1.14128
C         46.38712        50.62775         1.37095
C         47.73815        52.80443         1.51753
C         46.42927        52.09841         1.33214
C         47.74515        54.29149         1.58006
C         46.52150        54.96817         1.27670
C         47.80360        57.04051         0.97934
C         46.55105        56.36528         0.99762
C         47.85361        58.40950         0.54792
C         46.66568        59.19053         0.33649
C         47.82559        61.47343         0.49882
C         46.66422        60.64275         0.27612
C         48.61287        38.07333        -1.62737
C         49.85771        40.17223        -1.46711
C         48.63191        39.48537        -1.47475
C         49.98533        41.47288        -0.79449
C         48.67109        42.18353        -0.53872
C         50.08982        44.34497        -0.01114
C         48.77470        43.62258        -0.14830
C         50.09223        45.83813        -0.01752
C         48.94800        46.52203         0.23495
C         50.15373        48.72952         0.39459
C         48.86869        48.02077         0.06332
C         50.16254        49.97043         0.93540
C         48.94161        50.48693         1.67397
C         50.23852        52.76803         2.07107
C         48.94890        52.01067         1.92519
C         50.21512        54.30705         2.24077
C         48.97387        54.97158         1.63090
C         50.25590        57.07920         1.40779
C         49.00870        56.35606         1.31232
C         50.31456        58.45363         0.99978
C         49.14722        58.93594         0.34545
C         50.36112        61.56048         0.76108
C         49.13369        61.07118         0.26116
C         51.23716        42.25756        -0.72804
C         52.54249        44.35477        -0.33874
C         51.32267        43.60766        -0.39017
C         52.60075        45.76266        -0.16690
C         51.34753        46.56492        -0.40309
C         52.65111        48.66821         0.40091
C         51.39372        48.08841        -0.16539
C         52.66203        49.97068         0.84797
C         51.40475        50.81742         0.80257
C         52.67982        52.78360         1.59759
C         51.48588        52.08864         1.64319
C         52.72302        54.24246         1.82905
C         51.54217        54.97862         1.93235
C         52.48436        57.31278         2.22344
C         51.43658        56.43808         1.87040
C         52.57814        58.67216         1.85751
C         51.48124        59.28051         1.18392
C         52.64414        61.45827         1.42890
C         51.50764        60.74726         0.99733
C         53.79681        46.45540         0.03907
C         55.08452        48.49901         0.50524
C         53.87569        47.87498         0.29756
C         55.22424        49.93673         0.92341
C         53.89979        50.67414         1.07155
C         55.22291        52.74951         1.12011
C         53.89781        52.04281         1.25703
C         55.06652        54.23074         0.95051
C         54.02008        54.88643         1.55487
C         55.07727        57.11209         1.12374
C         54.24395        56.28318         1.86371
C         55.09667        58.58797         1.30459
C         53.89577        59.34681         1.93384
C         54.86421        61.49495         1.03136
C         53.89032        60.86797         1.97662
C         56.08718        50.73866        -0.03749
C         56.90704        52.93513        -0.78401
C         56.08532        52.10551         0.04460
C         56.99504        54.32245        -0.64228
C         56.29364        54.99897         0.51470
C         56.87903        57.21380        -0.53764
C         56.03309        56.46968         0.27136
C         56.78778        58.66389        -0.54351
C         55.94616        59.34811         0.35800
C         56.56701        61.47985        -0.71029
C         55.77211        60.77476         0.22186
C         57.77873        55.11060        -1.50316
C         58.59110        57.28780        -2.30506
C         57.79353        56.53120        -1.43979
C         58.51511        58.70985        -2.33306
C         57.60163        59.39356        -1.46591
C         58.33311        61.53580        -2.44052
C         57.50750        60.81888        -1.52791
C         59.31830        59.46275        -3.21836
C         59.22325        60.85906        -3.26382
O         44.48238        41.06765        -2.05916
O         45.49658        48.39948        -0.59474
O         49.38781        43.80827         1.16446
O         45.75935        43.60243        -1.66475
O         53.54192        56.77881         2.97392
O         34.92641        56.75935        -2.45674
O         45.13087        37.60092        -2.26337
O         49.17660        41.33656         0.49240
O         55.00783        58.89900         2.75214
O         47.30270        52.45314         0.15531
O         41.53270        54.45475        -1.02617
O         51.29114        46.83465        -1.88501
O         49.50276        52.22932         3.25850
O         49.28648        59.94817        -0.59067
O         42.38409        53.80134         2.39659
O         40.73802        46.02356         2.77549
O         46.15182        46.06297         2.06603
O         47.51779        45.47122        -1.34196
O         37.79456        45.94116         2.04193
O         51.43206        48.28934        -1.65705
O         39.73256        41.86235         2.57706
H         39.59816        42.83440         2.56688
O         47.66701        42.06868        -2.70489
H         47.00882        42.75867        -2.95416
O         31.28581        54.79433        -2.41210
H         31.96877        55.18531        -2.99599
O         57.24761        54.94326         1.64971
H         56.94949        55.60261         2.31386
O         49.02272        49.82836         2.97446
H         49.48531        50.44824         3.58845
O         41.02786        56.69456         1.84418
H         41.56749        56.17727         2.48007
O         41.94936        41.69711        -1.66201
H         42.72922        41.41428        -2.20390
O         36.28408        50.89673         1.80512
H         35.43189        51.37423         1.89352
O         54.10348        61.29274         3.34764
H         54.77734        60.68366         3.72404
O         51.33115        51.34408        -0.57398
H         51.21473        50.57934        -1.18211
O         41.12057        56.90897        -1.80488
H         40.49906        57.30418        -2.45029
O         38.26464        53.89922        -2.23571
H         38.31891        54.76043        -2.70261
O         50.07349        54.60356         3.66338
H         49.60400        53.84019         4.07599
O         40.65660        49.68699        -1.10292
H         40.75459        50.56681        -1.52795
O         55.89917        49.90044         2.21303
H         56.03333        50.83957         2.50396
O         38.31372        48.32405        -1.37099
H         39.18463        48.78686        -1.49769
O         35.59294        62.73196        -0.25687
H         35.58880        62.51491         0.69766
O         48.69088        48.23684        -1.37161
H         48.04209        47.58145        -1.71121
O         45.69685        43.52955         2.01229
H         46.13149        44.23559         2.54881
O         55.95842        52.62199         2.38945
H         56.72826        53.24364         2.32319
H         29.66280        56.64649        -0.42077
H         28.50099        58.79103         0.01603
H         30.72096        62.50294         0.00948
H         28.56812        61.26896         0.25017
H         32.05392        52.32637        -0.71443
H         30.91231        54.53013        -0.40339
H         33.16633        62.50538        -0.43535
H         34.45133        48.03908        -0.42253
H         33.27209        50.18340        -0.69845
H         35.60486        61.79912        -2.08427
H         37.17847        43.72298        -0.43660
H         35.60591        45.87664        -0.06683
H         38.03138        62.48642        -0.50887
H         39.70066        39.38349         1.91773
H         39.37832        41.68169        -0.79655
H         40.49088        62.47435        -0.22806
H         42.07910        35.30058         1.05917
H         40.80895        37.39630         1.35607
H         42.98682        62.45397        -0.01773
H         45.44908        32.01630         0.14057
H         43.39377        33.21082         0.88583
H         45.43322        62.41799         0.20117
H         47.31352        33.25766        -0.94217
H         48.37374        35.37661        -1.53066
H         47.65148        62.46406         0.94525
H         49.56736        37.54352        -1.76589
H         50.77261        39.62844        -1.74928
H         50.41991        62.61215         1.08097
H         52.15356        41.74796        -1.06473
H         53.49284        43.80119        -0.39556
H         52.58565        62.55694         1.43270
H         54.73621        45.88307         0.08944
H         56.01338        47.91106         0.44926
H         54.84791        62.59119         0.94144
H         56.72483        50.22082        -0.77022
H         57.50227        52.44651        -1.57175
H         56.44654        62.56991        -0.79753
H         58.35724        54.61474        -2.29767
H         59.27559        56.77664        -2.99820
H         58.25761        62.63162        -2.48440
H         60.02446        58.93949        -3.87885
H         59.85784        61.42258        -3.96215
