         232
 CSIRO Nanostructure Databank - Neutral Graphene Oxide Data Set
C        -11.19202         0.59727        -0.55279
C        -10.01441         1.40467        -0.29475
C         -8.88299         0.69872         0.43568
C         -7.55815         1.46153         0.31047
C         -6.27862         0.74694         0.52171
C         -4.99760         1.34861        -0.04528
C         -3.77305         0.73007         0.56719
C         -2.53779         1.40531         0.65297
C         -1.33630         0.67541         0.81235
C         -0.06620         1.34661         1.10492
C          1.22164         0.64766         0.91084
C          2.40493         1.35585         0.79661
C          3.64957         0.62359         0.40863
C          4.91056         1.39928         0.20420
C          6.21712         0.63654         0.38582
C          7.44524         1.39501        -0.07550
C          8.64092         0.74763        -0.21320
C          9.87029         1.47924        -0.46779
C         11.06823         0.72358        -0.75579
C         -9.98940         2.73900        -0.58827
C         -8.72229         3.51128        -0.71900
C         -7.45556         2.76397        -0.42035
C         -6.17158         3.50097        -0.29260
C         -4.98721         2.85473        -0.04448
C         -3.71172         3.55384         0.05620
C         -2.51666         2.85985         0.46702
C         -1.30798         3.56292         0.59224
C         -0.06498         2.88270         1.02782
C          1.23502         3.56145         0.84153
C          2.43829         2.80436         0.84042
C          3.70726         3.49805         0.76597
C          4.89244         2.84639         0.49215
C          6.14107         3.60161         0.21405
C          7.39459         2.86731        -0.17261
C          8.68138         3.61452        -0.18107
C          9.87765         2.86609        -0.40765
C         -8.65609         4.98838        -0.69483
C         -7.46014         5.66390        -0.70531
C         -6.18130         4.89930        -0.75197
C         -4.85863         5.62098        -0.74138
C         -3.66119         4.93521        -0.20062
C         -2.45035         5.67048         0.01128
C         -1.25945         4.96873         0.36583
C         -0.03028         5.68905         0.53896
C          1.22060         4.97527         0.71512
C          2.44861         5.71470         0.74113
C          3.70930         4.97353         0.95879
C          5.01051         5.74432         0.92681
C          6.33636         4.98222         0.82994
C          7.45475         5.73656         0.13734
C          8.65567         5.00076        -0.13987
C         -7.37825         7.10602        -0.60873
C         -6.18910         7.80784        -0.61052
C         -4.88714         7.11742        -0.79085
C         -3.61868         7.85524        -0.48927
C         -2.41376         7.09235        -0.09156
C         -1.24290         7.80045         0.22182
C         -0.04108         7.09516         0.49831
C          1.18840         7.86954         0.90909
C          2.47180         7.10869         0.69346
C          3.70238         7.83376         0.52392
C          4.94829         7.15929         0.51339
C          6.13159         7.82714         0.10917
C          7.36027         7.09354        -0.06936
C         -6.14256         9.23691        -0.41637
C         -4.97709         9.92691        -0.19452
C         -3.68906         9.28926        -0.13205
C         -2.51241         9.95468         0.14556
C         -1.25354         9.26494         0.22139
C         -0.04924         9.95718         0.25955
C          1.20251         9.28556         0.38693
C          2.40543         9.92253         0.15705
C          3.66061         9.23494         0.22130
C          4.86545         9.90179        -0.09888
C          6.06681         9.21342        -0.17617
C        -11.13744        -0.76321        -0.59890
C         -9.91472        -1.51407        -0.38156
C         -8.72682        -0.78439         0.06850
C         -7.56959        -1.46649         0.32702
C         -6.33702        -0.74062         0.74368
C         -5.04057        -1.48046         0.77612
C         -3.80520        -0.73589         0.41698
C         -2.54276        -1.46948         0.24053
C         -1.32518        -0.83325         0.86198
C         -0.08133        -1.44496         0.29086
C          1.20222        -0.82583         0.68982
C          2.48271        -1.61987         0.51744
C          3.82436        -0.88471         0.70678
C          4.97434        -1.46862        -0.12621
C          6.13235        -0.76790        -0.19244
C          7.42075        -1.30867        -0.77234
C          8.66474        -0.75715        -0.02612
C          9.90199        -1.44756        -0.57845
C         11.07388        -0.63801        -0.84269
C         -9.88482        -2.88595        -0.54141
C         -8.68707        -3.66856        -0.31418
C         -7.39544        -2.88439        -0.22198
C         -6.26572        -3.69870         0.39188
C         -5.01642        -2.99160         0.77399
C         -3.67676        -3.72458         0.82544
C         -2.57418        -2.96675         0.10764
C         -1.29776        -3.61306        -0.30280
C         -0.09924        -2.68396        -0.28859
C          1.15139        -3.16526        -0.82087
C          2.39726        -2.79536        -0.39606
C          3.61322        -3.53812        -0.81939
C          4.92713        -2.98471        -0.26970
C          6.12715        -3.59334        -0.99029
C          7.40686        -2.83331        -0.95056
C          8.64860        -3.59032        -0.46872
C          9.88519        -2.79312        -0.80812
C         -8.68397        -5.03380        -0.30243
C         -7.50998        -5.85901         0.18781
C         -6.19332        -5.14004         0.08407
C         -4.95803        -5.82609         0.10315
C         -3.73602        -5.14623         0.31210
C         -2.43639        -5.85410         0.30490
C         -1.10663        -5.08341         0.11479
C         -0.09520        -5.93027        -0.67709
C          1.09041        -5.33405        -1.17135
C          2.36406        -5.89067        -0.98523
C          3.60795        -5.07574        -1.05508
C          4.86639        -5.81063        -0.75441
C          6.15378        -5.12917        -1.16546
C          7.43297        -5.77379        -0.67627
C          8.61705        -5.08494        -0.71289
C         -7.43140        -7.28776        -0.27526
C         -6.23990        -7.97591        -0.23583
C         -4.96784        -7.28300        -0.06594
C         -3.79241        -8.00563        -0.02243
C         -2.47451        -7.34150         0.12109
C         -1.31874        -8.16269        -0.44362
C         -0.05180        -7.33380        -0.54523
C          1.17724        -7.96594        -0.79647
C          2.40183        -7.27507        -0.71266
C          3.66120        -7.97536        -0.40624
C          4.89002        -7.14294        -0.40877
C          6.14764        -7.77721        -0.01922
C          7.35688        -7.13780        -0.22204
C         -6.19602        -9.42480        -0.31693
C         -5.04402       -10.12401        -0.10623
C         -3.77927        -9.44792         0.06308
C         -2.59918       -10.10618         0.41254
C         -1.29757        -9.49322         0.32975
C         -0.17741       -10.12205         0.84982
C          1.17277        -9.78715         0.42428
C          2.37267        -9.76772         1.08064
C          3.63161        -9.26924         0.46667
C          4.91414        -9.59158         1.13129
C          6.07789        -8.98390         0.78797
O         -4.05823         7.63198        -1.88640
O         -6.94418        -2.68574        -1.60046
H         -7.66923        -2.25816        -2.10407
O         -7.75219        -5.96258         1.64988
H         -6.97062        -6.40058         2.05051
O          1.76120        -1.67864         1.78137
O         -0.15175         2.19667         2.31028
O         -5.38664         5.04481        -1.98194
O          3.69014        -4.09651        -2.15454
O         -5.01826         0.93098        -1.44480
H         -4.12148         1.04032        -1.82724
O         -7.93274         2.82471        -1.79555
O         -0.47502        -4.97413         1.41064
H         -0.80652        -5.72183         1.96261
O          7.56707        -0.72241        -2.09093
H          7.01491        -1.26358        -2.70321
O          6.17242        -5.39396        -2.60168
H          5.42971        -4.88201        -2.99671
O         -5.66803        -1.02483         2.01874
O          6.81687         4.75306         2.17849
H          6.03634         4.81873         2.77845
O          4.26423        -1.08461         2.03439
O          6.38550         0.47371         1.83260
H          5.61969        -0.12268         2.14039
O          8.60924        -1.00037         1.39877
H          7.83650        -0.48613         1.77144
O          1.18009        -9.36246        -0.93013
O          0.99936        -4.10922        -1.83468
O          5.02756        -3.47305         1.09670
H          4.74907        -2.72429         1.71028
O          1.08264         8.01346         2.37587
H          1.25997         7.13492         2.77581
O         -1.69068        -8.47457        -1.81041
H         -0.95986        -9.00132        -2.19983
O          6.47836         3.44355        -1.20071
O          8.52635        -3.61553         0.99214
H          8.66461        -2.70103         1.35659
O         -9.28036         0.72843         1.82756
H         -8.44990         0.76272         2.35991
O         -5.94147        -3.47733         1.80752
O         -2.34170        -3.38293        -1.28064
O          4.08582         0.99177        -0.93988
O         -3.17786        -0.91565        -0.94499
O          3.77035        -9.30310        -0.98438
O         -1.38441        -1.21829         2.26805
H         -0.47550        -1.18869         2.63961
O         -3.28835        -3.80253         2.21686
H         -4.10877        -3.94293         2.74106
O          4.35423         5.45225         2.21024
O         -6.85693         1.53476         1.60284
O         -2.28302        -6.79667         1.46472
O          6.70183        -3.05473        -2.21938
H         12.00156        -1.15929        -1.12510
H         11.99343         1.28516        -0.95424
H         10.82605         3.41088        -0.53150
H          9.57695         5.56442        -0.35412
H          8.22533         7.63745        -0.47857
H          6.98657         9.74295        -0.46237
H          4.83470        10.97748        -0.32448
H          2.40604        10.97864        -0.15406
H         -0.05214        11.05046         0.13024
H         -2.52448        11.04268         0.31177
H         -5.02124        11.01253        -0.02098
H         -7.09834         9.78193        -0.40422
H         -8.32174         7.66297        -0.49742
H         -9.59971         5.55026        -0.61839
H        -10.89898         3.20433        -1.00379
H        -12.13074         1.11378        -0.80533
H        -12.04233        -1.33360        -0.85680
H        -10.81791        -3.41913        -0.78144
H         -9.63561        -5.56924        -0.45233
H         -8.37346        -7.84605        -0.39053
H         -7.14463        -9.96030        -0.47017
H         -5.06046       -11.22373        -0.09339
H         -2.65008       -11.17367         0.67951
H         -0.32674       -10.98822         1.51619
H          2.41837       -10.05741         2.14065
H          4.92259       -10.41477         1.86182
H          7.01873        -9.33575         1.23849
H          8.28194        -7.61772         0.13491
H          9.54212        -5.62545        -0.44874
H         10.78374        -3.29793        -1.19752
