         620
 CSIRO Nanostructure Databank - Neutral Graphene Oxide Data Set
C         23.02890        27.24109        -1.05120
C         22.99872        28.61724        -1.12625
C         23.03146        31.56314        -1.58385
C         23.05001        32.93443        -1.66513
C         23.10332        35.92682        -1.68278
C         23.10378        37.35005        -1.58922
C         23.06371        40.33067        -1.38928
C         23.08625        41.71991        -1.31759
C         22.99303        44.66196        -1.01770
C         22.95104        46.01227        -0.91668
C         25.52981        24.44946        -0.77280
C         24.32487        25.12843        -0.98990
C         25.43239        27.23745        -0.39041
C         24.23050        26.51321        -0.81086
C         25.41262        28.79131        -0.48528
C         24.16002        29.43496        -0.95615
C         25.42341        31.56120        -0.74147
C         24.16774        30.81832        -1.15377
C         25.42025        33.03529        -1.05717
C         24.23029        33.70128        -1.36521
C         25.34833        35.81385        -0.69038
C         24.19060        35.15286        -1.32284
C         25.30426        37.31448        -0.51612
C         24.16919        38.07088        -1.08658
C         25.31991        40.20580        -0.53445
C         24.19393        39.53635        -1.00079
C         25.25063        41.64036        -0.07981
C         24.14646        42.43770        -0.73660
C         25.30771        44.54320        -0.20029
C         24.15718        43.87661        -0.63413
C         25.34527        46.00985        -0.04029
C         24.07482        46.78557        -0.36620
C         25.38094        48.85584        -0.71207
C         24.19468        48.22301        -0.70343
C         28.03988        23.02259        -0.16683
C         27.98358        24.42740        -0.27447
C         26.73651        25.12835        -0.50570
C         27.92630        27.30086        -0.40622
C         26.73260        26.55907        -0.44178
C         27.90369        28.74655        -0.59485
C         26.69931        29.43564        -0.72221
C         27.94763        31.61451        -0.97010
C         26.67460        30.84939        -1.26283
C         27.92567        33.00567        -0.87480
C         26.66493        33.73706        -0.88605
C         27.88206        35.87265        -0.63561
C         26.65639        35.12113        -0.71253
C         27.86241        37.26546        -0.56330
C         26.61512        38.00987        -0.29866
C         27.84677        40.26835        -0.42699
C         26.59665        39.50941        -0.28760
C         27.82151        41.67179        -0.24626
C         26.58215        42.34877        -0.14886
C         27.84150        44.56057         0.20380
C         26.53574        43.79351         0.09621
C         27.84606        46.03415        -0.03658
C         26.64753        46.71338        -0.18701
C         28.01698        48.89478        -0.39695
C         26.66256        48.12801        -0.57403
C         28.03605        50.34932        -0.20806
C         30.43958        23.07779         0.27949
C         29.23178        22.36992         0.11298
C         30.42438        24.49687         0.13122
C         29.18961        25.17235        -0.12110
C         30.40214        27.29460        -0.32602
C         29.17731        26.59608        -0.27740
C         30.38936        28.69248        -0.78876
C         29.14460        29.46340        -0.79358
C         30.42455        31.60938        -0.88925
C         29.18097        30.87653        -0.91839
C         30.40745        33.05966        -0.85596
C         29.16107        33.75387        -0.79393
C         30.37843        35.89946        -0.67821
C         29.14870        35.16921        -0.71851
C         30.38556        37.32809        -0.67723
C         29.09624        38.01982        -0.80745
C         30.36498        40.23546        -0.52112
C         29.08555        39.55774        -0.73534
C         30.32401        41.65289        -0.26581
C         29.08378        42.38084        -0.17846
C         30.29338        44.49515         0.16817
C         29.10471        43.80181        -0.00667
C         30.27964        45.93711         0.50119
C         29.09087        46.73678         0.13285
C         30.38707        48.85358         0.43733
C         29.16985        48.12902         0.10298
C         30.38522        50.27188         0.49814
C         29.15175        50.97846         0.24591
C         32.88948        20.33960         1.14092
C         31.72384        20.99247         0.76648
C         32.87497        23.14111         0.81527
C         31.68008        22.39436         0.61192
C         32.86380        24.57873         0.59701
C         31.64003        25.24548         0.24037
C         32.85034        27.41900         0.10590
C         31.63202        26.64472        -0.02869
C         32.85570        28.79695        -0.11968
C         31.70884        29.46953        -0.73291
C         32.88845        31.64834        -0.64862
C         31.66025        30.94006        -0.73271
C         32.90705        33.06551        -1.15251
C         31.61962        33.79081        -0.85587
C         32.85918        35.94488        -0.72533
C         31.62313        35.20136        -0.74519
C         32.84719        37.36405        -0.65029
C         31.58786        38.06261        -0.64646
C         32.83306        40.20583        -0.50836
C         31.57864        39.51028        -0.55692
C         32.79335        41.67275        -0.50076
C         31.54137        42.34117        -0.15524
C         32.86005        44.47426         0.43538
C         31.54429        43.73869         0.26518
C         32.86529        45.98241         0.27628
C         31.58152        46.66901         0.69049
C         32.83970        48.81935         0.78677
C         31.60811        48.14570         0.61856
C         32.83651        50.25598         0.89219
C         31.60792        50.97607         0.78615
C         32.83318        53.04387         1.25521
C         31.65329        52.38659         0.97068
C         35.41813        18.90206         1.78571
C         35.29907        20.36577         1.88832
C         34.07511        21.05868         1.38013
C         35.30154        23.22679         1.44840
C         34.06329        22.45697         1.20190
C         35.29694        24.69192         1.13240
C         34.04581        25.32933         0.69424
C         35.30878        27.42622         0.50656
C         34.07633        26.73873         0.46773
C         35.34313        28.88340         0.49398
C         34.00956        29.62378         0.22341
C         35.33302        31.68956        -0.28898
C         34.08027        31.00805        -0.27736
C         35.35346        33.10547        -0.55729
C         34.14762        33.81878        -0.77713
C         35.32733        35.97913        -0.70071
C         34.11531        35.24692        -0.75033
C         35.32100        37.38706        -0.60514
C         34.08074        38.09252        -0.58582
C         35.33207        40.24986        -0.43856
C         34.07085        39.52968        -0.52546
C         35.37089        41.65369        -0.27863
C         34.13499        42.43770        -0.36788
C         35.33845        44.52003         0.28645
C         34.12759        43.81550         0.11428
C         35.35299        45.91055         0.60047
C         34.06053        46.58766         1.00408
C         35.30462        48.74313         0.99143
C         34.08286        48.09106         0.86366
C         35.29289        50.17851         1.32658
C         34.04565        50.95095         1.17535
C         35.33217        53.05583         1.59046
C         34.06587        52.34555         1.36599
C         35.37788        54.41574         1.95809
C         37.87093        18.97012         2.01727
C         36.60890        18.26865         1.93774
C         37.88596        20.38182         1.92255
C         36.61239        21.13324         1.98764
C         37.78943        23.19317         1.29340
C         36.62250        22.53769         1.51404
C         37.80087        24.52972         0.58607
C         36.56618        25.35633         0.80709
C         37.81583        27.43215         0.36347
C         36.56447        26.71575         0.53929
C         37.80662        28.84812         0.15091
C         36.59266        29.58423         0.17039
C         37.81015        31.68266        -0.23442
C         36.56757        30.98250        -0.09279
C         37.80802        33.10577        -0.41888
C         36.59672        33.80143        -0.55618
C         37.84684        35.98993        -0.57256
C         36.61054        35.24501        -0.99786
C         37.82855        37.37395        -0.47710
C         36.57320        38.11683        -0.53676
C         37.87011        40.26360        -0.55410
C         36.56403        39.50649        -0.44684
C         37.83284        41.68296        -0.02621
C         36.59219        42.37958        -0.03498
C         37.79568        44.51760         0.29574
C         36.57786        43.79342         0.17040
C         37.80211        45.93666         0.46571
C         36.56138        46.63583         0.65997
C         37.80613        48.77738         0.85984
C         36.56162        48.05297         0.88649
C         37.84208        50.19913         1.00275
C         36.60198        50.91895         1.35673
C         37.79122        53.08836         1.41284
C         36.56690        52.39357         1.37439
C         37.81650        54.41327         1.88137
C         36.59740        55.04819         2.17958
C         40.36802        16.19258         2.39922
C         39.16969        16.85767         2.33562
C         40.33250        18.97523         1.87593
C         39.11436        18.26266         2.07245
C         40.32187        20.39190         1.67846
C         39.09474        21.08660         1.74481
C         40.33191        23.25102         1.26145
C         39.08457        22.59616         1.80665
C         40.28117        24.63064         0.96197
C         39.06870        25.32363         0.74782
C         40.28921        27.44226         0.29138
C         39.04666        26.72367         0.48044
C         40.27603        28.83572        -0.01293
C         39.04452        29.55014        -0.04079
C         40.28691        31.66566        -0.32986
C         39.03877        30.96563        -0.20328
C         40.29336        33.09764        -0.37160
C         39.06181        33.82574        -0.42772
C         40.29822        35.94074        -0.21812
C         39.06591        35.24223        -0.42221
C         40.29880        37.34490        -0.00372
C         39.05392        38.09513        -0.15421
C         40.17491        40.18941         0.61922
C         39.05016        39.46644        -0.06811
C         40.29090        41.65768         0.26324
C         39.03274        42.37750         0.19475
C         40.24184        44.53909         0.30202
C         39.03079        43.80991         0.28370
C         40.25176        45.94246         0.29355
C         39.02513        46.65418         0.45503
C         40.25984        48.80352         0.54419
C         39.03045        48.08192         0.61885
C         40.24838        50.21607         0.63629
C         39.03952        50.91726         0.86947
C         40.31112        53.09074         1.25102
C         39.01667        52.44164         0.80277
C         40.35573        54.34776         1.78315
C         39.12143        55.04745         2.31726
C         40.40636        57.16190         2.20737
C         39.21136        56.54369         2.12589
C         42.84015        16.19430         2.20286
C         41.59655        16.87872         2.16740
C         42.79843        18.96075         1.61081
C         41.57767        18.27285         1.89278
C         42.77616        20.36617         1.32523
C         41.55566        21.09446         1.41816
C         42.79139        23.15415         0.87460
C         41.55433        22.51209         1.21053
C         42.84683        24.62669         0.86410
C         41.53974        25.39695         0.91019
C         42.74608        27.41483         0.05541
C         41.52471        26.77438         0.40185
C         42.73856        28.80973        -0.26280
C         41.51413        29.52002        -0.23053
C         42.74886        31.63898        -0.52942
C         41.50680        30.94551        -0.37629
C         42.75537        33.05672        -0.47895
C         41.53116        33.78868        -0.35525
C         42.74904        35.92297        -0.09596
C         41.53261        35.22273        -0.22250
C         42.76284        37.32365         0.13650
C         41.51643        38.00954         0.25607
C         42.80703        40.21051         0.46101
C         41.50376        39.44187         0.59952
C         42.76946        41.65070         0.14718
C         41.49370        42.32899         0.23795
C         42.63285        44.50612        -0.35196
C         41.55130        43.81922         0.44117
C         42.66360        45.97988        -0.21277
C         41.50428        46.67360         0.12093
C         42.72295        48.81418         0.25176
C         41.50590        48.10895         0.27654
C         42.78949        50.21255         0.52039
C         41.52052        50.95415         0.48988
C         42.85534        52.99623         1.26126
C         41.56544        52.43593         0.83403
C         42.86330        54.32538         1.77594
C         41.63160        55.02621         1.95920
C         42.88971        57.04862         2.47616
C         41.65199        56.40560         2.25289
C         44.01564        16.85717         1.93066
C         45.23563        18.92096         1.20310
C         44.02721        18.24431         1.60312
C         45.19166        20.26309         0.81531
C         43.98233        21.01467         0.91499
C         45.22052        23.12516         0.35831
C         43.97157        22.42623         0.66188
C         45.22585        24.54684         0.16340
C         44.02339        25.30757         0.29410
C         45.13792        27.29675        -0.73056
C         43.96483        26.66705        -0.02450
C         45.19205        28.80455        -0.65866
C         43.98039        29.50633        -0.54147
C         45.20003        31.62467        -0.96075
C         43.98087        30.92908        -0.66040
C         45.17074        33.06490        -0.96596
C         44.00124        33.73855        -0.58495
C         45.28694        35.89967        -0.19538
C         44.00888        35.15739        -0.16944
C         45.26298        37.39526        -0.37011
C         44.00276        38.06915         0.11444
C         45.22832        40.20389        -0.13517
C         44.02831        39.45370         0.14931
C         45.15381        41.55766        -0.43321
C         43.91407        42.28744        -0.32305
C         45.15281        44.50995        -0.73289
C         43.87626        43.73947        -0.68987
C         45.17735        45.86081        -0.54494
C         43.92514        46.66120        -0.49165
C         45.23864        48.81212         0.18203
C         43.97171        48.15819        -0.16397
C         45.26131        50.13956         0.59173
C         44.01657        50.88267         0.69036
C         45.30799        52.88535         1.43874
C         44.05131        52.26535         1.10248
C         45.33352        54.22898         1.89043
C         44.10494        54.97550         2.04390
C         44.08114        56.34321         2.41477
C         47.65783        18.78680         0.78255
C         46.50459        18.20798         1.17673
C         47.70527        20.17940         0.29392
C         46.36208        20.89680         0.08859
C         47.67123        23.10035         0.23020
C         46.41800        22.40083         0.27097
C         47.67732        24.52908         0.04586
C         46.45569        25.23567        -0.09985
C         47.62954        27.33857        -0.65798
C         46.44391        26.63428        -0.40121
C         47.65365        28.73237        -0.94169
C         46.41639        29.49033        -0.93096
C         47.64781        31.57370        -1.67728
C         46.41235        30.89816        -1.14825
C         47.63676        33.11441        -1.79167
C         46.37597        33.83939        -1.35913
C         47.73412        35.95886        -0.65039
C         46.47083        35.28094        -0.86562
C         47.84500        37.22608         0.16189
C         46.53442        38.02768         0.19234
C         47.77693        40.17674        -0.34806
C         46.53399        39.52012         0.06787
C         47.64172        41.45516        -1.02437
C         46.35447        42.24113        -0.97951
C         47.72183        44.43729        -1.01923
C         46.38157        43.74757        -1.08400
C         47.76011        45.88972        -0.59021
C         46.45492        46.56135        -0.22984
C         47.75703        48.74222         0.25798
C         46.47448        48.00953         0.17903
C         47.75871        50.09447         0.66102
C         46.52359        50.79822         0.86763
C         47.79365        52.78886         1.57962
C         46.54085        52.15103         1.29063
C         47.77142        54.13607         2.04331
C         46.59374        54.82540         2.19368
C         50.25687        20.36900         0.91377
C         48.99085        20.97355         0.43337
C         50.09211        23.24396         0.70723
C         48.89213        22.44032         0.42395
C         50.14212        24.60328         0.14267
C         48.92163        25.20577        -0.15411
C         50.18986        27.27823        -0.88965
C         48.87872        26.55759        -0.72766
C         50.16438        28.74517        -1.01621
C         48.91032        29.41399        -1.15177
C         50.15276        31.25144        -2.05752
C         48.91199        30.76703        -1.60191
C         50.19410        33.43915        -2.13405
C         48.86413        34.03176        -1.90101
C         50.24200        35.94279        -0.83432
C         48.92725        35.39552        -1.24910
C         50.25417        37.36454        -0.51538
C         49.04858        38.05121        -0.28804
C         50.22510        40.18821        -0.77395
C         49.00042        39.47205        -0.45095
C         50.22795        41.57242        -1.03478
C         48.94148        42.20486        -1.33188
C         50.13096        44.25037        -1.72802
C         48.90806        43.65802        -1.49556
C         50.14220        46.37586        -1.26018
C         48.94804        46.79370        -0.68652
C         50.22464        48.76147         0.04708
C         48.96873        48.07492        -0.05217
C         50.24394        50.09251         0.56995
C         49.02057        50.75973         0.86565
C         50.29381        52.68718         1.67942
C         49.02809        52.09087         1.38006
C         51.35695        21.09395         1.18816
C         52.62798        23.34767         1.02645
C         51.35592        22.57878         1.15280
C         52.64780        24.63720         0.43615
C         51.41006        25.27699        -0.02591
C         52.67649        27.29464        -0.78750
C         51.42527        26.59058        -0.48509
C         52.66343        28.74215        -0.97108
C         51.40301        29.42967        -1.12073
C         52.65684        31.52453        -1.79261
C         51.40119        30.74698        -1.65341
C         52.63134        33.06850        -1.77229
C         51.38167        33.88443        -1.61272
C         52.70351        35.84913        -0.71163
C         51.39958        35.19835        -0.96917
C         52.74600        37.37147        -0.62070
C         51.47540        38.09410        -0.63619
C         52.70944        40.22024        -0.93179
C         51.47634        39.49369        -0.76025
C         52.69629        41.63368        -1.04983
C         51.44373        42.32569        -1.11608
C         52.60781        44.55611        -1.26320
C         51.41804        43.72226        -1.39655
C         52.63595        45.98625        -1.07474
C         51.43467        46.82534        -0.88772
C         52.71670        48.88285        -0.36736
C         51.44353        48.09800        -0.29384
C         52.72735        50.08661         0.53661
C         51.51023        50.73306         0.84345
C         51.47492        52.03105         1.44765
C         54.94747        23.60570         1.71185
C         53.80055        22.83129         1.60375
C         54.99787        24.89810         1.14716
C         53.87690        25.35735         0.41435
C         55.21855        27.43594        -0.26237
C         54.01393        26.60499        -0.34946
C         55.14076        28.73768        -0.85297
C         53.88760        29.43657        -1.08588
C         55.13441        31.56770        -1.30884
C         53.91802        30.84425        -1.36818
C         55.16363        32.99917        -1.42709
C         53.86439        33.69224        -1.11542
C         55.06251        35.92363        -1.60720
C         53.88732        35.17460        -1.22424
C         55.12936        37.38319        -1.38321
C         53.96914        38.08696        -1.03094
C         55.14850        40.22395        -1.33473
C         53.94395        39.50972        -1.07924
C         55.13501        41.65973        -1.35171
C         53.90017        42.37975        -1.23379
C         55.08393        44.53638        -1.25850
C         53.85847        43.82339        -1.23989
C         55.12482        45.92517        -0.96089
C         53.89309        46.64180        -0.79917
C         55.16287        48.60550         0.02609
C         53.94712        48.00568        -0.34450
C         55.15566        49.92740         0.60672
C         53.99730        50.60702         0.89485
C         57.08506        25.47767         2.35995
C         56.15755        25.76742         1.32168
C         57.52509        27.71547         0.77240
C         56.31435        26.95669         0.55036
C         57.95374        28.73816        -0.10106
C         56.31534        29.47874        -1.14347
C         57.64024        31.60310        -1.04377
C         56.38912        30.88088        -1.16816
C         57.63160        33.00796        -1.32939
C         56.36928        33.68253        -1.52743
C         57.62297        35.91584        -1.66401
C         56.37789        35.14255        -1.78892
C         57.59257        37.34236        -1.73134
C         56.35369        38.07607        -1.60619
C         57.59569        40.22123        -1.70950
C         56.36288        39.50345        -1.55434
C         57.58943        41.65785        -1.68017
C         56.35566        42.35415        -1.55861
C         57.68403        44.55846        -1.42239
C         56.31329        43.81268        -1.61243
C         57.62296        45.87909        -0.79916
C         56.38822        46.57277        -0.67186
C         57.63874        48.45503         0.30112
C         56.40151        47.88726        -0.11763
C         58.10713        26.34050         2.70293
C         59.39621        28.42131         2.20642
C         58.35268        27.49383         1.91341
C         59.58591        29.56344         1.44834
C         58.83522        29.76695         0.25645
C         60.01372        31.80238        -0.47746
C         58.83758        31.02704        -0.49115
C         60.03114        33.11348        -0.92908
C         58.83814        33.76723        -1.29860
C         60.04423        35.95283        -1.61159
C         58.83782        35.21287        -1.53346
C         60.03316        37.32504        -1.76848
C         58.82163        38.06084        -1.79183
C         60.02985        40.24493        -1.93395
C         58.81770        39.50680        -1.82830
C         60.04402        41.61450        -1.81084
C         58.84419        42.36029        -1.63884
C         60.05505        44.36234        -0.77327
C         58.89044        43.74506        -1.29378
C         60.03788        45.67052        -0.33346
C         58.82932        46.43067        -0.29927
C         58.81489        47.74615         0.23726
O         35.79206        20.89639         3.17260
O         46.09022        34.95210        -2.28191
O         31.22935        28.88301        -1.99123
O         52.82238        32.36207        -3.00196
O         44.87220        35.35777         1.07228
O         48.72702        35.22472        -2.74124
O         47.40148        32.26392        -2.95214
O         42.86799        44.05004        -1.71855
O         50.15999        32.32257        -2.95473
O         34.54248        29.47798         1.57261
O         50.47146        23.18044         2.17317
O         52.90032        36.52402         0.59040
O         26.63221        38.72679         0.99717
O         50.08147        45.50018        -2.33520
O         49.52550        26.62918        -2.04916
O         41.52098        51.98332        -0.57790
O         29.00131        38.84118        -2.03873
O         32.21336        43.92034         1.61040
O         48.00480        44.80268         0.39634
O         25.27176        28.09456         0.78445
O         46.42427        46.91441         1.20853
O         24.45151        46.50669         1.02134
O         35.99280        50.40526         2.60926
O         46.46163        38.81820         1.40035
O         57.47158        28.73716        -1.41846
O         27.14036        44.16979         1.40865
O         24.98081        36.43006         0.60407
O         48.57285        20.35707        -0.87381
O         53.50879        26.53609        -1.71806
O         55.58564        35.52843        -2.95123
O         43.89954        47.66823        -1.56206
O         48.21125        41.45248        -2.37121
O         42.27445        39.81912         1.78976
O         35.20090        24.20322         2.54814
O         33.44656        42.30052        -1.67549
O         30.85518        46.18503         1.84583
O         57.02955        44.43112        -2.71961
O         42.37009        25.23106         2.11532
O         46.12772        42.92732        -2.25830
O         27.54847        48.43034        -1.70480
O         39.10430        22.92788         3.24164
H         38.28384        22.56815         3.64354
O         45.30848        37.66112        -1.80477
H         45.55540        36.84670        -2.29934
O         26.55616        30.76990        -2.71463
H         27.37934        30.36653        -3.06242
O         32.99739        46.25678        -1.13997
H         33.83256        45.85262        -1.45929
O         52.69026        49.46041        -1.74088
H         52.70093        48.70848        -2.37203
O         48.12220        36.83046         1.54037
H         47.76779        37.54946         2.11446
O         25.51090        31.48192         0.71248
H         24.72291        31.92382         1.09217
O         39.14930        54.84037         3.77306
H         39.96507        55.26601         4.11296
O         33.87609        46.31922         2.41966
H         34.58014        46.78435         2.91768
O         46.03257        20.72047        -1.32857
H         46.88933        20.75038        -1.81534
O         24.89358        41.56250         1.35474
H         25.45502        40.86840         1.76482
O         38.90622        52.75098        -0.62680
H         39.77312        52.49664        -1.03315
O         44.90822        26.99407        -2.16663
H         45.68907        27.32394        -2.66214
O         39.74778        40.22622         2.02629
H         40.57680        40.23144         2.56205
O         37.75028        24.16470        -0.85645
H         37.84793        24.99434        -1.37189
O         53.62617        33.40758         0.32508
H         53.98580        34.15176         0.85482
O         38.09641        40.43091        -2.00673
H         37.29283        40.84851        -2.38466
O         36.68326        35.18546        -2.47483
H         35.87982        34.71394        -2.78554
O         32.96647        32.95721        -2.63699
H         32.20829        32.39808        -2.91397
O         41.97195        43.99245         1.83949
H         41.29616        43.57103         2.41180
H         22.10826        26.67249        -1.24913
H         22.04220        29.10372        -1.36315
H         22.10616        31.03076        -1.84595
H         22.13592        33.46110        -1.97045
H         22.20567        35.45078        -2.10156
H         22.21728        37.87588        -1.97040
H         22.17942        39.84265        -1.81994
H         22.22407        42.26105        -1.73244
H         22.11820        44.14142        -1.42985
H         22.08102        46.56628        -1.30045
H         25.52975        23.35532        -0.86508
H         23.42890        24.56075        -1.27994
H         25.42744        49.92102        -0.97994
H         23.27068        48.77675        -0.92939
H         27.12756        22.42229        -0.28050
H         27.14672        50.93625        -0.47547
H         29.21136        21.27683         0.21026
H         29.12813        52.07101         0.35657
H         32.86099        19.25113         1.28075
H         30.82096        20.38851         0.61022
H         32.81030        54.13428         1.38634
H         30.73105        52.97860         0.90003
H         34.51845        18.30133         1.59279
H         34.44953        54.96836         2.15694
H         36.62279        17.17126         1.88667
H         36.59942        56.07099         2.58147
H         40.39336        15.11600         2.62131
H         38.24118        16.30147         2.52087
H         40.47349        58.26025         2.18491
H         38.28746        57.13685         2.06567
H         42.85374        15.12002         2.43646
H         42.90160        58.12316         2.70851
H         44.95322        16.28713         1.95269
H         45.01831        56.87819         2.61691
H         48.59037        18.20571         0.78365
H         46.53567        17.16233         1.50885
H         48.71131        54.64961         2.28342
H         46.63458        55.86103         2.55549
H         50.31967        19.27167         0.93653
H         50.33469        53.69593         2.11083
H         52.28886        20.57328         1.45421
H         52.41609        52.54111         1.69295
H         55.82003        23.18765         2.22998
H         53.79231        21.82698         2.04889
H         56.10527        50.39393         0.89536
H         54.07074        51.56349         1.43072
H         56.93559        24.57983         2.97424
H         57.66824        49.47103         0.71332
H         58.74564        26.12749         3.57163
H         60.01732        28.24816         3.09669
H         60.32494        30.31343         1.76407
H         60.94383        31.35420        -0.10126
H         60.98217        33.66063        -0.90776
H         61.01346        35.43931        -1.57300
H         60.99643        37.84667        -1.83748
H         60.98279        39.72245        -2.08725
H         61.00472        42.14401        -1.86714
H         60.98935        43.78825        -0.70502
H         60.95763        46.12938         0.05590
H         59.75278        48.18980         0.59992
