         331
 CSIRO Nanostructure Databank - Neutral Graphene Oxide Data Set
C         30.33185        57.11249         0.57264
C         30.34683        58.47728         0.87912
C         29.16277        59.17817         1.26331
C         30.44281        61.20871         1.70521
C         29.21759        60.49819         1.66372
C         32.79738        52.93206        -0.19991
C         32.75778        54.30812        -0.23822
C         31.55295        55.03482         0.03771
C         32.74903        57.23196        -0.12217
C         31.51177        56.41495         0.19200
C         32.78515        58.56040         0.59030
C         31.61799        59.19490         0.93527
C         32.88268        61.31053         1.30333
C         31.64202        60.59021         1.36174
C         35.27998        48.64573        -0.09477
C         35.25742        50.07342        -0.12858
C         34.04195        50.80132        -0.21281
C         35.28424        52.91506        -0.34983
C         34.03641        52.19796        -0.28882
C         35.30297        54.33660        -0.36632
C         34.00929        55.08264        -0.61122
C         35.29340        57.19248        -0.10045
C         34.02368        56.41380         0.14448
C         35.21324        58.69543        -0.06557
C         34.12290        59.18076         0.89651
C         35.31484        61.39520         0.87015
C         34.08125        60.69008         0.99214
C         37.65349        44.26261        -0.32549
C         37.29465        45.51116         0.19445
C         36.34173        46.46983        -0.21255
C         37.71891        48.59045         0.38628
C         36.43016        47.86654         0.09836
C         37.74307        50.07141         0.10270
C         36.48255        50.79473        -0.16018
C         37.77743        52.91546        -0.37798
C         36.50923        52.19375        -0.29998
C         37.76933        54.37314        -0.37095
C         36.50309        55.05653        -0.30534
C         37.74966        57.24446        -0.16928
C         36.49469        56.51726        -0.22238
C         37.71877        58.64191         0.12685
C         36.53078        59.34350         0.26701
C         37.76939        61.47973         0.44922
C         36.51700        60.74806         0.57544
C         40.24121        40.05317        -0.10498
C         40.21844        41.46272        -0.15707
C         38.99046        42.22448        -0.30678
C         40.19466        44.25168         0.48297
C         38.89849        43.58406        -0.05245
C         40.26620        45.76985         0.38112
C         39.16386        46.56986         0.67699
C         40.25496        48.60559        -0.00382
C         39.05157        47.91792         0.31092
C         40.27831        50.04108        -0.25117
C         38.95722        50.70314        -0.55559
C         40.23267        52.89518        -0.69832
C         38.96426        52.20620        -0.43025
C         40.23460        54.41683        -0.70296
C         38.96346        55.10978        -0.44192
C         40.22888        57.24925        -0.40489
C         38.99331        56.54739        -0.31750
C         40.17684        58.76757        -0.33634
C         39.01097        59.32902         0.49159
C         40.19095        61.65533        -0.10175
C         38.96027        60.84380         0.30361
C         42.71543        35.79460         0.60562
C         42.71096        37.15759         0.43327
C         41.40146        37.84167         0.08682
C         42.66011        40.05985         0.18407
C         41.44676        39.35611         0.08455
C         42.67054        41.47086         0.02485
C         41.44920        42.15755        -0.11615
C         42.69426        44.33221        -0.03600
C         41.37888        43.64746        -0.31367
C         42.70636        45.69975         0.06893
C         41.46697        46.45741         0.10880
C         42.75267        48.55466        -0.32435
C         41.46143        47.86695         0.00548
C         42.73922        50.05687        -0.18688
C         41.46974        50.74638        -0.34559
C         42.69665        52.91333        -0.45314
C         41.51116        52.19430        -0.48312
C         42.70874        54.36253        -0.43535
C         41.51436        55.10637        -0.47416
C         42.73640        57.20570        -0.64755
C         41.48162        56.56107        -0.50641
C         42.95071        58.53664        -1.22347
C         41.37792        59.45791         0.34020
C         42.68979        61.45973        -0.43700
C         41.51048        60.89147        -0.06793
C         45.20319        32.98258         0.48896
C         44.00037        33.62149         0.63516
C         45.21318        35.80704         0.67574
C         43.95375        35.06816         1.03520
C         45.18005        37.21435         0.54567
C         43.93475        37.89787         0.50098
C         45.18744        40.05719         0.16878
C         43.92676        39.38943         0.66307
C         45.17017        41.45884        -0.04815
C         43.94335        42.18367        -0.02507
C         45.16415        44.33298        -0.10409
C         43.94022        43.60510        -0.04416
C         45.22955        45.71954         0.12023
C         43.95764        46.40085         0.37323
C         45.22534        48.58876         0.24840
C         43.94493        47.90298         0.33438
C         45.14641        50.04958         0.32974
C         43.91864        50.74136        -0.12469
C         45.23137        52.91989        -0.00206
C         44.02128        52.18361        -0.54905
C         45.18383        54.37222        -0.05112
C         43.97854        55.03683        -0.26285
C         45.22659        57.23228        -0.25919
C         43.92314        56.52378        -0.01907
C         45.21937        58.62864        -0.30770
C         44.03789        59.33327        -0.61082
C         45.17650        61.48261        -0.37019
C         43.98003        60.76234        -0.47448
C         46.43372        33.68789         0.55017
C         47.66828        35.84243         0.50850
C         46.44826        35.10097         0.59600
C         47.66595        37.23143         0.40301
C         46.41299        37.94206         0.36459
C         47.64965        40.00276        -0.35600
C         46.39075        39.33404         0.11328
C         47.64481        41.49188        -0.24220
C         46.42584        42.15265        -0.25272
C         47.69590        44.37901        -0.52874
C         46.38963        43.60745        -0.45847
C         47.69287        45.81970        -0.17064
C         46.44757        46.46304         0.08422
C         47.68231        48.61606         0.39921
C         46.44078        47.89783         0.29244
C         47.69249        50.06222         0.88797
C         46.37658        50.81242         0.64099
C         47.64958        52.97683         0.76341
C         46.37763        52.26932         0.36473
C         47.65843        54.42471         0.33514
C         46.43339        55.09826         0.09469
C         47.68959        57.19806        -0.20278
C         46.45831        56.50897        -0.11043
C         47.67358        58.65210        -0.61477
C         46.48984        59.36696         0.04241
C         47.66222        61.50595        -0.38398
C         46.45318        60.84075        -0.29822
C         48.89592        37.98583         0.37252
C         50.11929        40.10639         0.15808
C         48.91557        39.34053         0.10524
C         50.14988        41.48796        -0.03140
C         48.89837        42.21641        -0.24762
C         50.19832        44.33127        -0.40046
C         48.92696        43.59772        -0.35014
C         50.18377        45.85312        -0.30576
C         48.89123        46.53925        -0.08481
C         50.16152        48.67000         0.29295
C         48.89175        47.94126         0.21540
C         50.15100        50.05714         0.33176
C         48.91284        50.82186         0.41698
C         50.11566        52.97423        -0.06747
C         48.88751        52.18907         0.33868
C         50.14533        54.37665         0.57600
C         48.87042        55.11964         0.27260
C         50.15947        57.22022        -0.13969
C         48.90144        56.51023        -0.02796
C         50.15793        58.66831        -0.26359
C         48.96305        59.37666        -0.34777
C         50.14027        61.50616        -0.18295
C         48.93471        60.81212        -0.30517
C         51.37370        42.22317         0.08487
C         52.62427        44.37277         0.11409
C         51.43436        43.60554        -0.05966
C         52.62890        45.76235         0.19225
C         51.42775        46.53394         0.10912
C         52.66895        48.63975         0.39045
C         51.41607        47.92814         0.31160
C         52.68322        50.05830         0.36915
C         51.41229        50.80953         0.66898
C         52.58467        52.95067         0.20960
C         51.41485        52.24799         0.21648
C         52.60926        54.40566         0.10023
C         51.39288        55.11753         0.13756
C         52.64295        57.21139        -0.50682
C         51.36747        56.51302        -0.08811
C         52.63391        58.68622        -0.19045
C         51.40743        59.38295        -0.18612
C         52.61524        61.50998        -0.03489
C         51.39162        60.81895        -0.12280
C         53.94020        46.44385         0.52461
C         55.11333        48.64740         0.31986
C         53.91668        47.94562         0.36279
C         55.14395        50.07249         0.25758
C         53.88393        50.75355         0.24396
C         55.15423        52.96190         0.15257
C         53.86585        52.21628         0.08992
C         55.08144        54.39179         0.63436
C         53.85134        55.11466         0.13442
C         55.10185        57.23125         0.09988
C         53.88576        56.50397        -0.02079
C         55.10190        58.66125         0.02558
C         53.85111        59.37789        -0.05747
C         55.08319        61.50749         0.07764
C         53.84833        60.81736         0.01048
C         56.36411        50.79846         0.32830
C         57.58929        52.95571         0.52535
C         56.41606        52.21181         0.37321
C         57.59734        54.39712         0.46196
C         56.36899        55.12541         0.39551
C         57.58068        57.24987         0.25802
C         56.35115        56.52475         0.26294
C         57.56730        58.67122         0.19280
C         56.31888        59.37418         0.10735
C         57.54760        61.51173         0.14951
C         56.31528        60.81760         0.10591
C         58.80619        55.11834         0.43961
C         60.03265        57.26887         0.37085
C         58.82251        56.53657         0.35815
C         60.03508        58.68029         0.31400
C         58.79092        59.38970         0.23411
C         60.02069        61.51859         0.23735
C         58.78213        60.82485         0.20223
C         61.24782        59.42540         0.34276
C         61.22667        60.81770         0.30294
O         40.21890        53.64600        -1.97369
O         38.07639        45.94601         1.28832
O         45.43606        50.51167         1.75414
O         41.99380        58.97627         1.27631
O         54.56451        52.69521        -1.14870
O         43.78884        47.20833         1.60847
O         46.95158        44.04499        -1.75490
O         47.69482        39.73159        -1.90628
O         50.30719        45.18070        -1.60610
O         37.76821        49.58762         1.47857
O         42.37516        58.93826        -2.26014
O         42.98932        48.32585        -1.76155
H         42.17741        48.58988        -2.24426
O         43.70625        56.62929         1.44072
H         44.51254        56.28304         1.88015
O         51.38841        50.89363         2.14482
H         50.55963        51.35336         2.40128
O         39.97029        62.12777        -1.43929
H         39.86215        61.32051        -1.99538
O         46.55281        40.36240        -2.49557
H         46.88618        41.25895        -2.74944
O         32.68494        57.54353        -1.55326
H         32.00833        58.24201        -1.67849
O         43.91022        35.05294         2.53577
H         44.72722        34.59508         2.83062
O         41.06437        43.89940        -1.71634
H         41.77625        43.50398        -2.26151
O         44.31076        52.11528        -1.99815
H         43.49513        51.81336        -2.45229
O         34.82502        59.16732        -1.39076
H         35.47152        58.81318        -2.03679
O         52.67904        57.13055        -1.97702
H         52.67417        56.17970        -2.21890
O         33.98507        55.29112        -2.04468
H         33.33863        56.01270        -2.23554
O         46.67054        59.25522         1.47967
H         45.87182        59.62291         1.91295
O         47.71390        52.97240         2.23792
H         47.67771        52.02366         2.52331
O         40.34914        37.36904         0.94043
H         40.59108        37.56511         1.86827
O         50.23921        54.21571         2.01538
H         49.36139        53.88582         2.33734
O         39.92491        59.30174        -1.65804
H         40.69421        59.05225        -2.23662
O         38.73304        50.44139        -1.99214
H         39.20607        51.13494        -2.50129
O         43.94625        39.60752         2.13213
H         43.18739        39.11471         2.51099
O         55.01549        45.85943        -0.21935
H         54.83665        45.99566        -1.17224
O         47.48509        58.68414        -2.05789
H         46.66971        58.18122        -2.26847
O         39.26457        59.05792         1.89084
H         38.46372        59.30185         2.39959
O         34.51514        58.69885         2.23411
H         33.88912        59.08925         2.88110
O         50.04004        53.19373        -1.50515
H         50.09877        52.32403        -1.95282
O         47.84760        50.01982         2.34477
H         46.95402        49.79107         2.70093
O         40.34264        43.88643         1.86809
H         39.61772        44.31978         2.36692
O         34.02622        56.06760         1.55436
H         34.24187        56.89273         2.05971
O         54.92730        54.28595         2.09244
H         54.87697        55.19465         2.45716
H         29.39297        56.54819         0.68542
H         28.19988        58.64780         1.23708
H         30.44321        62.26682         2.00419
H         28.29259        61.01820         1.95041
H         31.87341        52.36398        -0.00553
H         30.63157        54.45543         0.21531
H         32.86140        62.39994         1.46248
H         34.32579        48.12183        -0.26064
H         33.08628        50.25763        -0.17135
H         35.31824        62.48302         1.04022
H         36.96803        43.77288        -1.03579
H         35.48390        46.14434        -0.82216
H         37.71818        62.57826         0.38463
H         39.30236        39.48467        -0.17326
H         38.08100        41.67264        -0.59368
H         40.27061        62.56246         0.55574
H         41.76831        35.23741         0.54653
H         41.11717        37.51768        -0.95353
H         42.70251        62.53501        -0.68389
H         45.22667        31.89908         0.29974
H         43.05871        33.05469         0.59606
H         45.13889        62.58343        -0.38426
H         47.38134        33.13872         0.46062
H         48.62365        35.29672         0.50172
H         47.67614        62.59939        -0.51621
H         49.83605        37.46270         0.60570
H         51.05727        39.58144         0.39667
H         50.13585        62.60571        -0.13786
H         52.29491        41.66664         0.31600
H         53.57766        43.84166         0.25573
H         52.61604        62.60999        -0.01053
H         54.16435        46.23064         1.60990
H         56.06029        48.08776         0.34077
H         55.08299        62.60767         0.09898
H         57.30431        50.23177         0.41193
H         58.55233        52.43425         0.63471
H         57.54396        62.61205         0.14259
H         59.76190        54.57568         0.49406
H         60.98940        56.72974         0.43781
H         60.02228        62.61766         0.21205
H         62.20568        58.88887         0.39973
H         62.17429        61.37437         0.32719
