         657
 CSIRO Nanostructure Databank - Neutral Graphene Oxide Data Set
C          6.46575        31.99533        -2.72997
C          6.45027        33.35146        -2.60530
C          8.71508        27.64940        -1.96102
C          8.74347        29.03247        -1.91245
C          7.64914        29.82798        -2.42873
C          8.79095        31.93691        -1.90140
C          7.62987        31.21171        -2.37189
C          8.77701        33.30896        -1.76639
C          7.60646        34.09478        -2.13428
C          8.86498        36.26818        -1.80133
C          7.60909        35.47090        -2.07103
C          8.66412        37.66084        -1.25061
C         11.04389        23.27978        -1.31198
C         10.99821        24.69499        -1.11689
C          9.82638        25.41038        -1.44140
C         10.86668        27.58192        -0.56998
C          9.69704        26.85067        -1.22356
C         11.00780        29.02243        -0.86902
C          9.92948        29.70862        -1.41265
C         11.21780        31.88574        -1.02303
C         10.02367        31.16214        -1.63246
C         11.07972        33.28848        -0.68780
C          9.87224        33.99655        -1.05192
C         11.03088        36.23020        -0.45448
C          9.83138        35.50178        -0.92062
C         10.91450        37.58540        -0.22374
C          9.66746        38.30881        -0.54850
C         10.54975        40.31477         0.60172
C          9.56251        39.70008        -0.18411
C         10.70101        41.73261         0.75771
C         13.38804        18.92697        -0.76953
C         13.36556        20.33535        -0.84910
C         12.20736        21.09289        -1.04667
C         13.37223        23.24980        -0.61572
C         12.19934        22.53844        -1.02253
C         13.37670        24.65983        -0.44233
C         12.16555        25.37266        -0.62736
C         13.37699        27.52701        -0.14126
C         12.07166        26.77679        -0.06884
C         13.37769        28.94630        -0.07786
C         12.22164        29.70092        -0.45372
C         13.35238        31.76056         0.29241
C         12.28170        31.10332        -0.37814
C         13.17959        33.18286         0.80920
C         12.22344        33.97230        -0.07662
C         13.14347        36.08379         1.03988
C         12.21592        35.45949         0.00504
C         13.30668        37.57260         0.66945
C         11.93048        38.23858         0.57249
C         13.37524        40.51256         1.57799
C         11.56787        39.43212         1.13912
C         13.21875        41.84009         1.13624
C         11.91063        42.46497         0.98098
C         13.12659        44.63161         0.74611
C         11.92238        43.87480         0.84603
C         13.14326        46.04108         0.78290
C         15.85446        14.63037        -0.24489
C         15.85258        16.03708        -0.42425
C         14.63399        16.78738        -0.57946
C         15.85342        18.91993        -0.46965
C         14.60621        18.19274        -0.62795
C         15.85603        20.29762        -0.32807
C         14.68235        21.08162        -0.86279
C         15.82951        23.19484         0.09828
C         14.55350        22.46732        -0.24645
C         15.84908        24.67066        -0.02972
C         14.61709        25.36439        -0.15497
C         15.80680        27.53266         0.08027
C         14.59460        26.81616        -0.08428
C         15.78458        28.90743         0.45391
C         14.55009        29.64215         0.33880
C         15.53601        31.70399         1.51072
C         14.48965        31.03320         0.63631
C         15.68695        33.21256         1.26324
C         14.49125        33.93900         1.02223
C         15.70150        36.06300         1.29463
C         14.48036        35.34283         1.10727
C         15.70952        37.51211         1.27241
C         14.40122        38.22598         1.56000
C         15.66272        40.36486         0.87638
C         14.48845        39.71521         1.32968
C         15.60500        41.77094         0.68248
C         14.41862        42.52421         0.79668
C         15.57002        44.69890         0.39128
C         14.39642        43.96148         0.62208
C         15.55671        46.12560         0.22013
C         14.31333        46.81262         0.56756
C         15.19991        49.14242         0.50126
C         14.26182        48.19534         0.94782
C         15.72996        50.27960         1.11963
C         18.29760        10.35543         0.39211
C         18.28148        11.76125         0.12599
C         17.08372        12.48508         0.06587
C         18.30992        14.60532        -0.17643
C         17.05904        13.90115        -0.12766
C         18.31514        16.02501        -0.30226
C         17.10030        16.72158        -0.44436
C         18.36067        18.85617        -0.19128
C         17.13548        18.19040        -0.76227
C         18.27873        20.24221         0.24939
C         17.05969        21.02352        -0.01660
C         18.32753        23.13757         0.14959
C         17.09065        22.41418         0.08421
C         18.30591        24.55107        -0.12851
C         17.10002        25.33250        -0.12716
C         18.27804        27.56541         0.30994
C         17.09447        26.86317        -0.32767
C         18.18132        28.77495         1.22834
C         16.91477        29.56787         0.99240
C         18.19026        31.70877         1.76391
C         16.84383        30.91066         1.54229
C         18.19158        33.23190         1.91580
C         16.88834        33.91827         1.49777
C         18.20200        36.10194         1.57389
C         16.91730        35.33531         1.44660
C         18.20504        37.56450         1.21559
C         16.89161        38.24284         1.04768
C         18.21479        40.39585         0.75704
C         16.89748        39.63968         0.83845
C         18.00677        41.66960        -0.01735
C         16.87521        42.46686         0.46702
C         18.11051        44.62558        -0.01668
C         16.85549        43.95297         0.43006
C         18.09647        46.09736        -0.13507
C         16.78823        46.80635        -0.08473
C         18.09586        48.92846        -0.35296
C         16.88752        48.16136        -0.42010
C         18.09191        50.28993         0.06880
C         16.96958        50.91636         0.76163
C         18.34977        52.94795         1.13846
C         17.15674        52.21023         1.29227
C         18.44173        54.27323         1.63192
C         20.75024         6.08037         0.68090
C         20.73081         7.46413         0.56550
C         19.52474         8.21316         0.58485
C         20.72528        10.29039        -0.06676
C         19.48201         9.60952         0.38125
C         20.76625        11.76580        -0.08208
C         19.54435        12.46521        -0.03105
C         20.78502        14.58552        -0.15074
C         19.54025        13.88752        -0.11364
C         20.77140        16.01438        -0.29776
C         19.57889        16.73013        -0.33733
C         20.81812        18.91489        -0.10033
C         19.57679        18.18505        -0.22199
C         20.84920        20.28175         0.14928
C         19.60759        21.00923         0.44450
C         20.82011        23.14939         0.19763
C         19.57472        22.46662         0.26114
C         20.81840        24.55456        -0.05474
C         19.59331        25.09156        -0.42880
C         20.76276        27.63477         0.52932
C         19.51743        27.22083        -0.10055
C         20.68796        28.87623         1.10305
C         19.40504        29.64755         0.88011
C         20.65117        31.74249         1.24398
C         19.42674        31.03978         1.44882
C         20.65419        33.17788         1.11351
C         19.32906        33.89918         1.09302
C         20.64651        36.02860         0.71207
C         19.53975        35.35853         1.54028
C         20.60282        37.42269         0.31290
C         19.40160        38.20763         0.58321
C         20.38439        40.12744        -0.63154
C         19.33933        39.53375         0.23224
C         20.38894        41.59619        -0.96299
C         19.09815        42.34230        -0.71310
C         20.47787        44.55878        -1.03617
C         19.13659        43.83363        -0.76662
C         20.50563        45.97389        -0.73211
C         19.22449        46.75873        -0.91680
C         20.54624        48.86392        -0.58276
C         19.33597        48.21391        -0.53787
C         20.47308        50.37094        -0.82525
C         19.34107        51.01541        -0.02525
C         20.68470        53.11586         0.24673
C         19.44859        52.31440         0.44342
C         20.86552        54.29965         1.14636
C         19.64121        55.03783         1.57412
C         20.98779        57.15987         1.59142
C         19.73572        56.37311         1.90888
C         21.10519        58.50115         2.28367
C         23.17646         3.23733         1.16439
C         21.97562         3.94713         1.06087
C         23.22414         5.96911         0.52756
C         21.98181         5.32753         0.74702
C         23.22571         7.37592         0.01380
C         22.05869         8.19839         0.58931
C         23.33530        10.28422        -0.26166
C         22.00919         9.53977        -0.11532
C         23.28443        11.74359         0.10959
C         22.01282        12.45403        -0.03766
C         23.27600        14.58810         0.14673
C         22.00060        13.86482        -0.02204
C         23.31676        16.04665        -0.13886
C         22.04495        16.72331        -0.52948
C         23.37228        18.88437        -0.13461
C         22.07714        18.22519        -0.43428
C         23.34774        20.29667         0.07763
C         22.08759        21.02060         0.10511
C         23.30738        23.18907         0.07781
C         22.05619        22.41805         0.17324
C         23.29093        24.64246         0.38796
C         22.08532        25.42356        -0.12843
C         23.11438        27.40835         1.03085
C         21.97427        26.81507         0.54634
C         23.18593        28.83083         1.44840
C         21.88692        29.58878         1.54381
C         23.09126        31.65663         0.80971
C         21.85998        31.03487         1.27167
C         23.05944        33.13559         0.53667
C         21.81274        33.86853         0.83010
C         23.02910        35.85856        -0.05658
C         21.80215        35.28956         0.55192
C         22.97871        37.29031        -0.49275
C         21.72806        38.02373        -0.25155
C         22.90660        40.09961        -1.38337
C         21.65495        39.35375        -0.87014
C         22.95975        41.54898        -0.78877
C         21.67391        42.35204        -0.96482
C         22.97954        44.46694        -0.87963
C         21.71454        43.72819        -0.97254
C         22.99786        45.86377        -0.65893
C         21.74875        46.61955        -0.21041
C         22.99762        48.74866        -0.48824
C         21.78467        48.11509        -0.52587
C         23.10740        50.21774        -0.64271
C         21.85226        51.03781        -0.71607
C         23.26494        53.05877         0.00849
C         21.92733        52.46952        -0.27618
C         23.34941        54.41996         0.46475
C         22.19987        54.95788         1.23254
C         23.47790        57.15600         1.45623
C         22.26940        56.34491         1.86629
C         23.54076        58.44959         1.89340
C         22.33343        59.10553         2.41903
C         23.69033        61.08739         2.91081
C         22.47646        60.44052         2.94294
C         24.40038         3.87504         0.98817
C         25.68382         5.96085         0.57642
C         24.44875         5.26214         0.67330
C         25.72891         7.37816         0.45896
C         24.51802         8.10807         0.23199
C         25.72273        10.20533         0.50958
C         24.52734         9.51280         0.25622
C         25.68360        11.65729         0.88941
C         24.46687        12.40354         0.37775
C         25.74682        14.52416         0.29946
C         24.55043        13.84498         0.27046
C         25.85776        15.93829        -0.14805
C         24.60243        16.71867        -0.58494
C         25.80355        18.86126         0.14834
C         24.58112        18.18000        -0.13710
C         25.79121        20.27302         0.35593
C         24.56091        20.97225         0.28157
C         25.77848        23.10692         0.81816
C         24.59266        22.43932         0.26160
C         25.63981        24.49282         1.40903
C         24.39313        25.22656         0.91721
C         25.67601        27.42012         1.26030
C         24.36788        26.66556         1.22399
C         25.66018        28.87403         1.01478
C         24.43823        29.57235         1.13098
C         25.56797        31.71496         0.68968
C         24.38814        30.96735         0.91297
C         25.55076        33.11858         0.61999
C         24.34653        33.85360         0.53636
C         25.55493        35.92420        -0.00700
C         24.33973        35.22398         0.23208
C         25.50463        37.27166        -0.64569
C         24.23588        38.05555        -0.72276
C         25.50650        40.04501        -1.59508
C         24.22427        39.36792        -1.08564
C         25.45484        41.58738        -1.56319
C         24.15977        42.32567        -1.33236
C         25.43832        44.47925        -1.17376
C         24.20889        43.78476        -1.06962
C         25.46153        45.88711        -0.91705
C         24.23242        46.53481        -0.63158
C         25.52891        48.66212        -0.08392
C         24.22551        47.95839        -0.23718
C         25.53835        50.14146        -0.10330
C         24.39462        50.87973        -0.29201
C         25.74368        53.02163        -0.37191
C         24.42262        52.32125        -0.19075
C         25.76845        54.46047         0.06755
C         24.57489        55.10271         0.45993
C         25.94624        57.17720         0.96846
C         24.59278        56.60191         0.62099
C         25.99465        58.47228         1.47906
C         24.81011        59.16951         1.87375
C         24.85476        60.46531         2.38894
C         26.94887         8.09038         0.55494
C         28.17530        10.25473         0.64034
C         26.96285         9.50324         0.59058
C         28.18248        11.67288         0.63375
C         26.99214        12.38195         0.68885
C         28.27841        14.56415         0.67744
C         26.96488        13.86741         0.93400
C         28.28985        16.06568         0.85080
C         27.11712        16.70312         0.12621
C         28.24546        18.88124         0.42614
C         27.05104        18.18254         0.22083
C         28.24768        20.30566         0.57317
C         27.01099        20.98830         0.57231
C         28.21536        23.08944         1.23452
C         26.95218        22.40307         0.88371
C         28.20655        24.59341         1.24972
C         26.91107        25.30375         1.15082
C         28.12023        27.36592         0.45078
C         26.91023        26.65036         1.00429
C         28.09831        28.86259         0.64599
C         26.87028        29.53824         0.72018
C         28.09592        31.74302         0.52166
C         26.81858        30.98063         0.29179
C         28.08330        33.13360         0.52622
C         26.81718        33.90177         0.82458
C         28.04471        35.96030         0.14050
C         26.78883        35.28107         0.20672
C         27.98986        37.43520        -0.05846
C         26.79590        38.03899        -0.71759
C         27.97234        40.19819        -1.06369
C         26.78525        39.49539        -0.98547
C         27.97644        41.63338        -1.39747
C         26.71691        42.36272        -1.45124
C         27.91069        44.52890        -1.71218
C         26.67458        43.75550        -1.43541
C         27.92274        46.06601        -1.60456
C         26.70697        46.64096        -0.90475
C         28.01854        48.70323        -0.41173
C         26.76325        47.95902        -0.49426
C         28.05859        49.99079         0.07654
C         26.82504        50.77174         0.25211
C         28.25589        52.90653         0.00620
C         26.92698        52.26829         0.19803
C         28.26595        54.38783        -0.34987
C         27.02075        55.11978         0.13072
C         27.10065        56.44083         0.59671
C         29.53132        12.36725         0.58304
C         30.70993        14.59057         0.73803
C         29.47598        13.88101         0.66793
C         30.82219        16.00321         0.64547
C         29.59496        16.76111         0.48105
C         30.65451        18.97517         0.09429
C         29.51615        18.16077         0.34617
C         30.75540        20.34079         0.50280
C         29.49428        21.03580         0.71391
C         30.70174        23.17363         0.99965
C         29.49169        22.41000         0.95445
C         30.69322        24.57101         1.01091
C         29.46645        25.31375         0.98231
C         30.63526        27.45459         0.61907
C         29.43570        26.69731         0.78091
C         30.56297        28.87761         0.46601
C         29.31766        29.58405         0.51667
C         30.55196        31.74780         0.47968
C         29.32356        31.02139         0.49039
C         30.53538        33.16247         0.52501
C         29.30876        33.86808         0.51302
C         30.53256        36.11287         0.64585
C         29.25944        35.30684         0.40382
C         30.50300        37.39666        -0.16932
C         29.25657        38.21369        -0.15494
C         30.46987        40.17913        -1.03520
C         29.25294        39.55667        -0.78166
C         30.47287        41.53383        -1.70516
C         29.17746        42.29605        -1.51753
C         30.49092        44.45760        -1.43748
C         29.20523        43.75280        -1.76879
C         30.49448        45.91183        -1.12208
C         29.22730        46.67684        -1.09600
C         30.52420        48.71347        -0.53209
C         29.26168        47.98624        -0.69004
C         30.55925        49.96060        -0.01149
C         29.34189        50.68306         0.49010
C         29.37182        52.15527         0.09466
C         32.10565        16.59553         0.89032
C         33.37442        18.82846         1.03486
C         32.45422        17.91413         0.52436
C         33.27940        20.26961         0.82380
C         31.99140        20.96354         0.73635
C         33.18510        23.12033         0.50676
C         32.00130        22.42212         1.18471
C         33.19706        24.62584         0.62366
C         31.98520        25.35266         1.15047
C         33.05333        27.42844         0.21199
C         31.90247        26.77801         0.64509
C         32.95087        28.85814        -0.14587
C         31.76445        29.62405         0.28030
C         33.04271        31.76143         0.17174
C         31.78952        31.02134         0.30777
C         33.04599        33.13844         0.39132
C         31.82036        33.89498         0.82800
C         33.01450        36.00644         0.14087
C         31.82913        35.34862         0.40738
C         33.04037        37.51976         0.07054
C         31.76878        38.07967        -0.52140
C         32.96259        40.16948        -0.97789
C         31.72901        39.52440        -0.82104
C         32.98420        41.63953        -1.06662
C         31.70671        42.35040        -1.35038
C         33.02825        44.48782        -1.41884
C         31.77634        43.76966        -1.89277
C         32.96161        45.93460        -1.29620
C         31.79331        46.62600        -1.19239
C         31.78642        48.13245        -1.13002
C         34.45836        21.00839         0.88749
C         35.65566        23.19839         0.22116
C         34.52399        22.51157         0.96144
C         35.58799        24.55667         0.00260
C         34.34040        25.29640         0.27286
C         35.48360        27.40716        -0.30998
C         34.32149        26.74443         0.08968
C         35.47438        28.84509        -0.62581
C         34.20693        29.62720        -0.47077
C         35.53585        31.68595        -0.02950
C         34.26251        31.05664        -0.13573
C         35.59461        33.13356         0.29753
C         34.30942        33.89040         0.42927
C         35.48675        35.99079        -0.25696
C         34.28702        35.32778         0.09792
C         35.46876        37.38315        -0.62376
C         34.26096        38.11115        -0.59751
C         35.38725        40.13315        -1.63513
C         34.19346        39.45736        -0.99822
C         35.41367        41.63288        -1.43105
C         34.27032        42.34850        -1.26616
C         34.19704        43.80502        -1.22111
C         36.76574        25.31807        -0.32858
C         37.99023        27.45397        -0.46896
C         36.75068        26.70350        -0.40366
C         38.04099        28.82918        -0.43141
C         36.78564        29.60005        -0.59633
C         38.03488        31.70294         0.16530
C         36.74398        31.01968        -0.23169
C         38.01171        33.16641        -0.22176
C         36.80947        33.87434        -0.11208
C         37.95253        35.96271        -0.68864
C         36.74088        35.27156        -0.33838
C         37.92223        37.34662        -0.95996
C         36.69878        38.07379        -0.98538
C         36.67230        39.42660        -1.32320
C         39.26273        29.59721        -0.44447
C         40.46728        31.73604        -0.53801
C         39.26739        30.96544        -0.31242
C         40.44924        33.09509        -0.64670
C         39.21477        33.85239        -0.55067
C         39.17150        35.23143        -0.77430
O         24.61165        42.04429        -2.68277
O         28.52921        44.13468        -3.00616
O         20.57904        39.35347        -1.87436
O         33.27483        29.22533        -1.54113
O         31.70602        18.42012        -0.58982
O          9.25167        34.72587         0.15101
O         22.91236        32.19995        -0.58769
O         18.62000        45.47442         1.07887
O         22.06325        17.52504        -1.73540
O         18.27692        37.12088         2.62983
O         21.09732        53.34592        -1.13556
O         22.57954        29.13893         2.75632
O         15.08015        21.25750        -2.21103
O         12.94119        34.80589        -1.09642
O         31.07142        37.23985        -1.50679
O         21.20128         9.60335        -1.32069
O         14.92920        22.65557         1.14820
O         26.74415        51.62140         1.48673
O         32.14444        42.23912         0.01491
O         30.51262        44.86213        -0.04115
O         22.61741        50.76401        -1.94075
O         26.31838        37.27283        -1.87222
O         19.64744        26.29419        -1.15074
O          9.68992        27.26746         0.23697
O         24.15914        22.91852        -1.09061
O         19.47337        41.82635        -2.06468
O         17.46858        31.03552         2.88645
O         19.47057        44.28860        -2.09055
O         28.25150        23.80961         2.51004
O         24.82103        48.13583         1.11652
O         36.14125        29.23363        -1.87335
O         21.76444        53.95713         2.26135
O         35.13437        33.52123         1.63741
O         23.24312        15.62737         1.24699
O         28.49972        38.16981         1.11868
O         12.28566        39.92851         2.23059
O         23.70207        10.28396        -1.75279
O         15.73860        48.85322        -0.77583
O         22.83236        36.19405        -1.48189
O         26.91117        16.11231        -1.19286
O         11.13313        31.59102        -2.48851
O         22.92410         7.26013        -1.47439
O         18.85470        20.49061         1.57909
O         25.01214        27.00771         2.51048
O         17.13392        43.29295         1.73530
O         24.56934        16.70300        -2.02431
H         25.50136        16.76971        -2.33652
O         27.97930        27.19154        -1.01104
H         28.55644        27.85135        -1.45232
O         12.46885        35.96031         2.30029
H         12.93551        36.53441         2.95249
O         26.71156        30.88131        -1.18332
H         26.48601        31.77164        -1.53009
O         30.50769        36.46623         2.06325
H         29.78826        37.13609         2.17703
O         20.95755        57.40910         0.15267
H         20.19646        57.99439        -0.04212
O         19.29448        29.89765        -0.56332
H         20.04301        30.47220        -0.83403
O         18.59807        40.74680         2.13544
H         18.07622        41.54213         2.39225
O         22.35554         8.50023         1.97578
H         22.34967         7.66017         2.48093
O         22.38846        56.18732         3.29807
H         22.07309        55.27649         3.51298
O         29.36349        50.65427         1.95153
H         28.50296        51.03711         2.24787
O         30.37498        11.84999         1.62430
H         29.91962        11.98677         2.48022
O         25.59129        39.68328        -2.99558
H         24.76058        40.01376        -3.41473
O         14.95443        31.62298         2.85479
H         15.70823        31.54588         3.48597
O         12.54181        33.03615         2.10050
H         13.17738        32.55455         2.68200
O         33.05310        38.00069         1.44786
H         33.82578        37.60355         1.90185
O         17.26649        18.28120        -2.23377
H         16.81868        19.10777        -2.52453
O         11.86577        26.56840         1.36810
H         10.88737        26.54085         1.50177
O         27.78860        46.57332        -2.96849
H         28.22075        45.91566        -3.56326
O         13.86504        37.64817        -0.66186
H         13.38621        37.02776        -1.25329
O         18.39199        33.50534         3.31204
H         17.96623        32.78069         3.82004
O         33.01928        22.82303        -0.90502
H         33.77537        23.22029        -1.38813
O         35.20657        39.95638        -3.10019
H         35.19981        38.99164        -3.27939
O         31.81253        43.74936        -3.33329
H         31.28986        42.97198        -3.64699
O         38.09764        31.65760         1.63273
H         37.36348        32.21069         1.97940
O         22.80411        40.19575        -2.80939
H         21.86874        39.98718        -3.05328
O          9.55286        36.40683        -3.09324
H          9.00597        36.98408        -3.66622
O         31.88142        33.95232         2.30324
H         31.40621        34.77020         2.58495
O         28.33515        54.51952        -1.78109
H         27.57457        54.00781        -2.15091
O         24.32804        57.09696        -0.75030
H         25.12459        56.89878        -1.28796
O         28.08419        16.35170         2.28525
H         28.89697        16.07071         2.75830
O         34.80308        22.81517         2.35994
H         34.04588        22.47684         2.89252
O         22.89693        11.26345        -2.44621
H         22.00723        10.81218        -2.46808
O         32.21746        22.43679         2.64059
H         31.40030        22.09548         3.06438
O         26.85553        34.13875         2.28418
H         27.67265        34.64830         2.47493
O         24.12393         7.53916        -2.21965
H         24.05923         8.52299        -2.37203
O         22.35568        25.69978        -1.52499
H         21.52884        26.06417        -1.91432
O         25.47783        11.62642         2.35464
H         25.74430        12.51675         2.69708
O         30.57485        41.29961        -3.15209
H         29.76785        40.82343        -3.44521
O         25.47279        24.31289         2.83831
H         25.40414        25.21786         3.22717
O         31.89097        48.64693        -2.47329
H         32.59658        48.15158        -2.93788
O         23.16643        41.35816         0.63694
H         23.13686        42.23199         1.08141
O         18.22210        28.35815         2.60458
H         18.03785        29.15666         3.15343
O         20.06062        50.50477        -2.21467
H         20.88375        50.57458        -2.75109
O         21.74331        46.51238         1.25371
H         22.55738        46.95148         1.58465
O         18.86633        33.87831        -0.27853
H         19.59154        34.19629        -0.85817
O         14.07648        37.97959         2.95403
H         14.79228        38.35825         3.50639
O         25.98288        53.00815        -1.83415
H         25.15585        53.30150        -2.27456
O         32.21287        25.44830         2.60393
H         32.33446        24.52597         2.93140
O         26.72733        14.02218         2.39648
H         26.92338        14.96960         2.61823
O         20.08660        35.33066         2.87299
H         19.68954        36.08936         3.36071
O         17.14403        27.06895        -1.77468
H         18.03876        26.78556        -2.07537
O         18.81722        46.76780        -2.31145
H         19.50298        47.23259        -2.83467
H          5.57386        31.46525        -3.09552
H          5.54791        33.91805        -2.87932
H          7.90735        27.13194        -2.49979
H          6.76035        29.29462        -2.79853
H          6.70423        36.01951        -2.37917
H          7.73404        38.19813        -1.49306
H         10.13046        22.76186        -1.63862
H          8.99503        24.87853        -1.92714
H          8.74223        40.29772        -0.60940
H          9.83889        42.34408         0.44032
H         12.43790        18.36901        -0.81120
H         11.24532        20.58097        -1.21266
H         10.96361        44.41310         0.78795
H         12.20608        46.57374         1.00381
H         14.89544        14.09203        -0.20760
H         13.68449        16.23254        -0.63586
H         13.50826        48.48740         1.69522
H         15.18862        50.70508         1.97866
H         17.34549         9.85045         0.61559
H         16.12858        11.94865         0.17140
H         16.32329        52.67666         1.83872
H         17.53854        54.73608         2.05756
H         19.79964         5.53029         0.75501
H         18.57713         7.67360         0.73915
H         18.83331        56.91329         2.23848
H         20.18924        59.04561         2.56460
H         23.15162         2.16489         1.40348
H         21.01707         3.43508         1.22634
H         23.77167        62.10974         3.30716
H         21.59013        60.94745         3.35198
H         25.33944         3.31433         1.09828
H         26.62477         5.40500         0.70271
H         26.97013        58.96114         1.62824
H         25.81069        61.00856         2.41340
H         27.89405         7.53494         0.64292
H         29.13653         9.72121         0.66019
H         29.18075        54.87516         0.07076
H         28.08974        56.91326         0.70228
H         30.03195        12.09400        -0.38573
H         31.63127        13.99979         0.84251
H         31.52074        50.49462         0.04821
H         30.35984        52.62583        -0.03179
H         32.84105        15.98565         1.43583
H         34.19803        18.46968         1.66964
H         33.91579        46.48585        -1.25048
H         32.68195        48.48476        -0.53798
H         35.40492        20.46225         1.02794
H         36.62227        22.67960         0.12481
H         36.37213        42.15224        -1.58504
H         35.11887        44.36435        -0.99564
H         37.72282        24.78215        -0.41842
H         38.92986        26.88085        -0.44388
H         38.85688        37.86531        -1.21971
H         37.61741        39.93275        -1.57339
H         40.20775        29.06921        -0.64938
H         41.41020        31.18860        -0.68927
H         41.37894        33.64343        -0.85758
H         40.09658        35.77015        -1.02826
