         300
 CSIRO Nanostructure Databank - Neutral Graphene Oxide Data Set
C         30.49742        31.61283        -0.60923
C         30.41066        32.82363        -0.30557
C         30.30339        36.00545         0.19380
C         30.24334        37.23554         0.18587
C         30.34955        40.17423        -0.54532
C         30.41145        41.22856        -1.17851
C         32.85540        28.66195        -0.61392
C         31.78629        29.34232        -0.71822
C         32.73769        31.36594         0.22694
C         31.52229        30.67310        -0.41936
C         32.69395        32.83584         0.59876
C         31.38294        33.62493         0.44710
C         32.67141        35.89949         0.98442
C         31.34143        35.09495         0.66960
C         32.61522        37.36176         0.39249
C         31.29344        38.11480         0.81381
C         32.56576        40.40473         0.50296
C         31.29931        39.57612         0.40786
C         32.62439        41.78555        -0.12410
C         31.13706        42.48410        -0.98885
C         32.90808        43.89391        -1.87968
C         31.86555        43.23209        -2.04580
C         35.54831        27.18028        -0.05269
C         35.45435        28.58534        -0.50567
C         34.18236        29.35732        -0.85890
C         35.26268        31.55450        -0.12156
C         34.08480        30.61487         0.15831
C         35.18906        33.05002         0.09997
C         34.00242        33.67665         0.83753
C         35.15170        35.93565         0.43522
C         33.88583        35.15465         0.44961
C         35.16219        37.43305         0.56804
C         33.85636        38.14938         0.80954
C         35.19010        40.33039         0.57149
C         33.86504        39.66235         0.80807
C         35.16905        41.81106         0.31451
C         33.94184        42.46532        -0.26792
C         35.18840        44.50693        -0.95414
C         34.12865        43.67240        -1.15689
C         35.40970        45.85627        -1.40649
C         37.84665        27.12398         0.81010
C         36.62623        26.60406         0.16803
C         37.76214        28.64933         0.82934
C         36.65350        29.34538         0.03095
C         37.77714        31.67261         0.36922
C         36.58952        30.86579        -0.02884
C         37.79000        33.13198         0.06830
C         36.48480        33.82752         0.08699
C         37.73545        35.91991         1.01824
C         36.44137        35.19550         0.70526
C         37.69409        37.43835         1.25158
C         36.39285        38.18232         1.03708
C         37.67912        40.33972         0.47742
C         36.37072        39.66246         0.75853
C         37.75948        41.88221         0.60603
C         36.43421        42.61114         0.31402
C         37.73106        44.61776        -0.91981
C         36.44606        44.09815        -0.14625
C         37.72210        46.17799        -0.77393
C         36.36582        46.57665        -1.01872
C         40.44102        24.44167         1.05666
C         39.39767        25.04163         0.80204
C         40.35643        27.18000         1.40958
C         39.21608        26.51307         0.53663
C         40.35899        28.71567         1.18655
C         39.04443        29.43753         1.00489
C         40.30244        31.61040         0.38642
C         39.01608        30.93455         0.74665
C         40.25975        33.07858         0.07085
C         38.98786        33.85560         0.28195
C         40.28919        35.89487         1.00650
C         39.00787        35.21281         0.68169
C         40.30253        37.41168         1.17868
C         39.01169        38.26710         1.37276
C         40.27455        40.40362         0.63080
C         38.98110        39.59044         0.59820
C         40.24479        41.83503         0.17931
C         38.91291        42.44088        -0.26336
C         39.97147        44.77041         0.11661
C         38.92905        43.96210        -0.26534
C         40.16238        46.06353        -0.64198
C         38.84845        46.86536        -0.42922
C         40.20751        48.77468         0.26307
C         39.15625        48.21629        -0.09496
C         42.97956        24.44063         0.78793
C         41.77360        24.75379         1.57533
C         42.80741        27.20990         0.32725
C         41.74217        26.55618         1.16093
C         42.64713        28.64798        -0.12402
C         41.51332        29.41805         0.49259
C         42.81042        31.62859         0.27788
C         41.59735        30.91216         0.81716
C         42.81396        32.98327         0.25173
C         41.57701        33.81746         0.00146
C         42.73793        35.91584         0.26136
C         41.61232        35.09288         0.86770
C         42.69567        37.39114         0.22702
C         41.58413        38.17434         0.86452
C         42.66194        40.22285        -0.38628
C         41.58903        39.64636         0.57647
C         42.81448        41.73486        -0.26484
C         41.53890        42.50930        -0.26061
C         42.83357        44.59329        -0.86127
C         41.68787        43.66812        -1.23904
C         42.70209        46.03600        -0.57038
C         41.51708        46.69188        -0.41239
C         42.76891        48.49582         0.79456
C         41.60650        48.50392        -0.12568
C         43.89230        25.03135         0.21151
C         45.13156        27.10899        -0.87149
C         43.93480        26.40400        -0.31440
C         45.17761        28.65665        -1.06928
C         43.88956        29.40503        -0.59842
C         45.30028        31.58250        -0.12359
C         43.96775        30.87638        -0.29365
C         45.24689        33.05924        -0.51099
C         43.91998        33.78884        -0.38471
C         45.23009        35.87796         0.26830
C         44.05133        35.21341         0.12606
C         45.24535        37.36277         0.45466
C         44.01441        38.05994        -0.04617
C         45.33892        40.28185        -0.27714
C         44.02723        39.51009        -0.35523
C         45.22882        41.75414         0.08509
C         44.09860        42.37515        -0.81472
C         45.21057        44.57138        -0.11354
C         44.00943        43.90770        -0.72218
C         45.41511        46.08077        -0.49347
C         44.04339        46.91306        -0.55604
C         43.83591        47.87806         0.63546
C         47.46330        27.32944        -1.11548
C         46.49641        26.53203        -0.84635
C         47.74238        28.67416        -1.03358
C         46.46285        29.34589        -0.49392
C         47.80586        31.51394        -0.40992
C         46.47855        30.87534        -0.84085
C         47.85715        32.99862         0.02143
C         46.54897        33.75700        -0.26954
C         47.84982        35.88877         0.35068
C         46.53716        35.16262         0.25356
C         47.84415        37.37963         0.57435
C         46.53777        38.11990         0.49765
C         47.87798        40.30660         0.27218
C         46.61324        39.55208         0.02559
C         47.90383        41.79674        -0.04453
C         46.55123        42.47445        -0.05132
C         47.66995        44.70274         1.96421
C         46.48756        43.79207        -0.40017
C         47.32502        45.88364         1.28626
C         46.41382        46.37063         0.58025
C         50.27796        28.86328        -1.25280
C         48.91830        29.44888        -1.56998
C         50.31361        31.64857        -0.96981
C         49.04842        30.84066        -0.88403
C         50.30888        32.98995        -0.73759
C         49.01452        33.80254        -0.68551
C         50.27912        35.94140        -0.13709
C         49.11946        35.22886        -0.11685
C         50.32686        37.47979        -0.07235
C         49.10601        38.16298         0.50042
C         50.33712        40.42979         0.48448
C         49.07620        39.66170         0.39519
C         50.30768        41.78183         0.70563
C         48.93756        42.42429         0.91401
C         50.16534        44.26965         1.91530
C         48.81022        43.76178         1.69106
C         51.34623        29.43180        -1.02221
C         52.73137        31.64071        -0.60295
C         51.65955        30.86641        -1.33270
C         52.72003        32.87979        -0.63820
C         51.59124        33.79574        -0.78975
C         52.70375        36.08032        -0.06821
C         51.56941        35.26277        -0.54594
C         52.67017        37.24296         0.33339
C         51.56892        38.17019         0.71601
C         52.66418        40.47049         1.01469
C         51.68314        39.62813         0.26242
C         52.71691        41.68320         1.20385
C         51.64649        42.65220         0.82128
C         51.26957        43.73300         1.79572
O         40.22432        32.06916        -0.98873
O         42.26527        36.62268        -0.93807
O         48.63359        37.69006         1.78513
O         35.59179        42.53436         1.52278
O         38.31188        39.65635        -0.67712
O         38.19508        31.53359         1.79543
O         35.60666        33.76085        -1.09450
O         40.35238        36.52881         2.34587
O         31.54682        40.41631         1.56273
O         36.58754        28.85752        -1.36813
O         40.31128        41.49076         1.58945
O         32.97431        42.80660         0.82738
O         42.06241        39.13467         1.85109
O         37.49692        27.84218         2.01510
O         48.57947        30.68993         0.52021
O         51.62775        34.75042        -1.89079
O         36.94426        35.21727         2.05573
O         36.81931        37.78335         2.36596
O         46.21375        39.87975        -1.36386
O         41.20111        43.60713        -2.35096
O         45.72807        37.93042         1.71057
O         33.80099        38.88298         2.05099
O         46.05147        33.53309        -1.61802
O         41.81670        34.16752        -1.41783
O         36.03963        31.27624        -1.31233
O         42.43629        42.49540         0.90112
O         47.23946        35.26176         1.52848
O         48.57199        42.47749         2.33831
O         30.95484        34.18528         1.71144
O         35.29487        36.86129        -0.77132
O         42.85706        27.16993         1.81409
O         43.28097        33.96882        -1.71368
O         41.48261        29.01377        -0.91089
O         32.48352        31.79114         1.60198
O         44.10585        26.54734        -1.73651
O         44.06735        47.62073        -1.69841
O         39.71469        29.33354         2.31345
O         43.59538        30.40982        -1.62253
O         48.71070        33.94027        -2.13435
O         44.11051        38.51360        -1.42468
O         46.39972        31.07310        -2.24331
H         45.57120        30.66175        -2.58894
O         51.33573        38.17765         2.09889
H         51.24517        37.26329         2.43620
O         51.90746        43.19946        -0.44152
H         52.72557        43.73694        -0.40551
O         42.10651        40.04592        -1.70560
H         42.55847        39.27174        -2.12394
O         38.72161        41.99422        -1.61584
H         38.30012        42.71624        -2.14849
O         48.49050        41.94272        -1.37297
H         47.91895        41.43715        -1.99531
O         46.01342        46.17020        -1.75282
H         45.46975        46.86058        -2.24134
O         48.80702        29.62401        -2.96798
H         48.51411        28.78710        -3.38318
O         44.95254        44.51459         1.31194
H         44.33761        43.76443         1.50205
O         32.61905        37.30103        -1.03696
H         33.51018        36.97891        -1.32854
O         34.31980        30.03604         1.44727
H         33.80419        30.55401         2.11304
O         39.51776        26.79044        -0.82532
H         38.82545        26.40179        -1.40094
O         44.77651        41.78476         1.46123
H         45.42079        41.30519         2.02282
O         32.80830        35.96321         2.41050
H         32.12906        36.60155         2.75111
O         37.61127        44.29769        -2.31563
H         38.38002        44.72663        -2.76159
O         34.29397        33.60419         2.24148
H         33.72327        34.26405         2.70650
O         46.40683        29.15371         0.93288
H         47.31173        29.33110         1.28519
O         47.57381        44.41865        -0.89294
H         48.18801        43.73836        -1.27144
O         30.51799        43.29830        -0.08319
H         31.19367        43.85994         0.35806
O         36.46778        44.86843         1.06233
H         35.80343        44.48242         1.67735
O         41.98816        34.62566         2.17364
H         41.68540        35.29857         2.83012
O         44.36794        41.96599        -2.15581
H         43.62120        42.23644        -2.73120
O         40.80273        44.53836         1.15413
H         40.52770        43.74433         1.66295
O         40.06794        26.90817         2.77282
H         39.51522        27.64609         3.12626
O         48.12586        33.01534         1.42052
H         48.56313        32.16457         1.65527
O         41.70684        30.98622         2.25347
H         41.77844        31.92529         2.52797
O         34.20941        29.77249        -2.19225
H         35.11618        29.63734        -2.55302
O         47.96024        35.17434        -2.34822
H         47.22839        34.85481        -2.93463
O         52.02228        39.67962        -1.10469
H         52.13404        40.61495        -1.37442
O         45.25249        28.79216        -2.49563
H         44.52165        28.26336        -2.88727
O         41.91440        49.07977        -1.31966
H         42.83667        48.76571        -1.58219
O         38.05626        42.18211         1.97518
H         37.20840        42.15803         2.47574
O         51.85101        30.98864        -2.71012
H         52.63362        30.47002        -2.98514
O         46.95877        44.37106         3.00797
H         47.24477        43.49211         3.35268
O         40.08407        45.76815        -2.07141
H         40.51326        46.50597        -2.55491
O         31.14161        38.02864         2.21909
H         31.20311        38.94411         2.58992
O         39.09916        38.73288         2.72509
H         39.15339        37.95184         3.31750
O         45.54668        31.62005         1.29847
H         45.71308        30.69524         1.60763
O         50.35941        37.86647        -1.44732
H         51.11042        37.41755        -1.89225
O         41.89270        24.61186         2.92634
H         42.74004        24.99351         3.23167
