         344
 CSIRO Nanostructure Databank - Neutral Graphene Oxide Data Set
C          1.90335         2.09015         2.00521
C          1.79574         3.49414         1.72751
C          3.01912         1.39649         1.64400
C          2.72752         4.14963         0.97439
C          1.43373         6.30111         0.92504
C          1.38126         7.68831         0.88427
C          2.66103         5.60676         0.82651
C          2.54231         8.45703         0.64942
C          1.41368        10.62335         1.22646
C          1.45812        11.98133         1.48383
C          2.55322         9.92392         0.74861
C          2.64266        12.73459         1.30700
C          1.53707        14.88343         1.98943
C          1.58897        16.23289         2.25558
C          2.70230        14.15005         1.60481
C          2.81968        16.94097         2.18780
C          2.90203        18.33113         2.48744
C          4.09751         1.99293         0.88562
C          3.83885         3.38819         0.26181
C          5.23403         1.21940         0.75416
C          5.10473         4.24561         0.20306
C          3.83469         6.35873         0.60396
C          3.75627         7.75442         0.44378
C          5.17894         5.67117         0.70417
C          4.92168         8.48445        -0.08304
C          3.72790        10.66659         0.51443
C          3.80439        12.06550         0.80441
C          4.90771         9.99990        -0.06636
C          5.02197        12.78492         0.61433
C          3.93766        14.82771         1.51021
C          4.00627        16.22971         1.83140
C          5.11490        14.13834         1.02251
C          5.23669        16.92039         1.79604
C          4.10808        18.99294         2.44551
C          5.30959        18.29950         2.10235
C          6.42479         1.59605         0.02525
C          6.23085         3.73842        -0.33131
C          7.73702         1.32116         0.26999
C          7.59974         4.28339         0.01699
C          6.31523         6.42166         0.02007
C          6.21461         7.80039        -0.24060
C          7.54493         5.75776        -0.29499
C          7.31988         8.54313        -0.70200
C          6.20663        10.67647        -0.12173
C          6.18664        12.17880        -0.14503
C          7.35050         9.96298        -0.51247
C          7.52038        12.79567         0.18112
C          6.35827        14.81905         0.94613
C          6.52026        16.15555         1.62331
C          7.56281        14.13058         0.57189
C          7.59177        17.00343         0.94618
C          6.57329        18.97061         2.09986
C          7.74090        18.35028         1.63197
C          8.81392         2.08785        -0.38101
C          8.74988         3.50383        -0.57619
C          9.97822         1.41812        -0.75823
C          9.84563         4.19805        -1.12269
C          8.57043         6.39923        -0.95762
C          8.44215         7.83190        -1.41117
C          9.72710         5.63725        -1.45233
C          9.75943         8.58179        -1.42048
C          8.61683        10.64662        -0.62940
C          8.74750        11.91053         0.20658
C          9.73992         9.97484        -1.15676
C         10.05511        12.67570        -0.00689
C          8.82351        14.85599         0.63823
C          8.87868        16.21879         0.84353
C         10.13238        14.10846         0.52973
C         10.12516        16.94951         0.81761
C          8.98651        18.98583         1.65102
C         10.17304        18.33970         1.18050
C         11.10048         2.10582        -1.27565
C         11.05630         3.52991        -1.44201
C         12.30725         1.39617        -1.47919
C         12.24844         4.27079        -1.80303
C         10.97314         6.40851        -1.87367
C         10.98374         7.90208        -1.74692
C         12.24586         5.64995        -1.89555
C         12.19349         8.58594        -1.90737
C         10.93088        10.76718        -1.52703
C         11.10576        12.12712        -0.92268
C         12.21689        10.06018        -1.89231
C         12.22133        12.95441        -1.57042
C         11.13678        14.96188        -0.22431
C         11.29099        16.32779         0.32331
C         12.26005        14.38180        -1.03014
C         12.47991        17.04034         0.10528
C         11.39170        19.03195         1.06166
C         12.54999        18.41473         0.52190
C         13.50257         2.06720        -1.77535
C         13.42897         3.47429        -2.34365
C         14.70856         1.41885        -1.53775
C         14.83810         4.20538        -2.37165
C         13.47601         6.39104        -2.26764
C         13.44084         7.89490        -2.31485
C         14.78652         5.71229        -2.13129
C         14.77023         8.67472        -2.38245
C         13.51150        10.77763        -1.70276
C         13.52864        12.18953        -1.49145
C         14.71685        10.07506        -1.79708
C         14.73154        12.89554        -1.47296
C         13.54201        15.08974        -1.00564
C         13.62478        16.39110        -0.50027
C         14.71673        14.40388        -1.66161
C         14.86598        17.11225        -0.56461
C         13.76523        19.11651         0.36708
C         14.92223        18.47653        -0.13822
C         15.91082         2.16531        -1.31553
C         15.90022         3.55294        -1.51248
C         17.04620         1.50634        -0.77129
C         17.02214         4.39489        -0.97786
C         15.94651         6.43043        -1.93974
C         15.97708         7.88141        -1.88433
C         17.25215         5.65731        -1.83160
C         17.16673         8.57406        -1.66073
C         15.95356        10.76472        -1.65016
C         15.96612        12.18651        -1.52751
C         17.19620        10.03260        -1.64926
C         17.21332        12.89789        -1.54547
C         16.02972        15.06371        -1.33537
C         16.05826        16.43386        -0.97696
C         17.23505        14.33654        -1.45772
C         17.30730        17.12886        -0.95111
C         16.16023        19.17124        -0.19481
C         17.34354        18.53094        -0.58171
C         18.25712         2.20442        -0.54975
C         18.30179         3.62276        -0.75764
C         19.42785         1.51371        -0.16836
C         19.51167         4.30933        -0.65033
C         18.41552         6.45107        -1.28907
C         18.41546         7.86886        -1.39303
C         19.56777         5.75029        -0.88914
C         19.62600         8.57341        -1.25828
C         18.41062        10.73073        -1.57701
C         18.43419        12.17486        -1.59689
C         19.67198        10.00869        -1.45284
C         19.67117        12.87874        -1.63381
C         18.48634        15.03336        -1.44007
C         18.49129        16.44234        -1.28008
C         19.71717        14.28633        -1.56080
C         19.75106        17.20246        -1.37554
C         18.58467        19.22110        -0.52929
C         19.79613        18.59166        -0.84833
C         20.64804         2.19748        -0.00342
C         20.69560         3.60678        -0.26163
C         21.82287         1.51724         0.42952
C         21.93455         4.29652        -0.12481
C         20.80678         6.43309        -0.75075
C         20.85958         7.85758        -1.01575
C         21.99447         5.72168        -0.41311
C         22.08098         8.51688        -1.06117
C         20.88060        10.67465        -1.50939
C         20.94514        12.12364        -1.90758
C         22.18286         9.92314        -1.57560
C         22.19412        12.83010        -1.42911
C         20.98816        14.95689        -1.52965
C         21.03596        16.43459        -1.50447
C         22.19803        14.23585        -1.42948
C         22.24905        17.07013        -0.85667
C         21.02524        19.25719        -0.74917
C         22.27352        18.58053        -0.92240
C         23.02395         2.20381         0.58715
C         23.08303         3.59062         0.25301
C         24.22392         1.57086         1.11316
C         24.43677         4.24452         0.33394
C         23.22924         6.39127        -0.33441
C         23.37478         7.76682        -0.92869
C         24.39018         5.73370         0.13735
C         24.44138         8.60578        -0.27475
C         23.37089        10.69716        -1.03732
C         23.38560        12.09485        -1.11797
C         24.49355         9.98000        -0.48669
C         24.60783        12.82696        -0.78780
C         23.52856        14.94202        -1.58937
C         23.54215        16.40689        -1.23177
C         24.68568        14.20281        -0.97566
C         24.72949        17.07451        -1.15849
C         23.46623        19.25311        -0.96930
C         24.76318        18.58061        -1.31293
C         25.26291         2.31319         1.60978
C         25.09665         3.82494         1.68108
C         26.44951         1.67990         2.12258
C         26.38039         4.67637         1.99583
C         25.56042         6.44126         0.40070
C         25.50748         7.93296         0.53942
C         26.68252         5.78116         1.00204
C         26.84908         8.59763         0.41434
C         25.70954        10.70797        -0.16176
C         25.77345        12.10536        -0.34686
C         26.89779         9.98963         0.19471
C         26.99811        12.80460        -0.11189
C         25.89647        14.92344        -0.72794
C         25.96705        16.33315        -0.94667
C         27.05225        14.22176        -0.27536
C         27.18401        17.01508        -0.71977
C         26.00862        19.21499        -0.76984
C         27.27839        18.49238        -1.02839
C         27.56939         2.37287         2.47426
C         27.64949         3.88843         2.49438
C         28.76962         1.68281         2.93329
C         28.92815         4.32051         1.76976
C         27.92393         6.46017         1.04580
C         28.02538         7.85915         0.67690
C         29.10683         5.74910         1.42544
C         29.27690         8.51335         0.72608
C         28.14136        10.67490         0.35405
C         28.18287        12.08818         0.24320
C         29.33134         9.93229         0.65360
C         29.40217        12.78853         0.51483
C         28.25406        14.93500         0.00621
C         28.30511        16.32906        -0.21825
C         29.42480        14.21149         0.47119
C         29.61247        17.06564         0.01344
C         28.32617        19.20041        -0.23462
C         29.41535        18.54376         0.30363
C         29.99720         2.23989         2.81473
C         30.16715         3.49931         2.05691
C         31.44915         4.20649         2.02753
C         30.37899         6.30042         1.30397
C         30.55885         7.71348         0.77947
C         31.53492         5.50806         1.61985
C         31.65278         8.49763         1.45897
C         30.54030        10.62885         0.96344
C         30.57440        12.06161         0.90532
C         31.65437         9.85391         1.45969
C         31.73812        12.80245         1.23529
C         30.57411        14.91414         0.90099
C         30.41781        16.40343         1.13815
C         31.72221        14.19071         1.26666
C         31.67595        17.18378         1.42257
C         30.45858        19.23495         0.95709
C         31.62485        18.55111         1.39271
O         11.97084        13.09504        -2.98953
O         13.26695         7.10164        -3.55907
O         10.01965         5.90983        -2.88463
O         11.32151        10.64448        -2.91343
O         29.45517         3.43855         0.74788
O         26.03206         5.65530         2.98596
O         20.47086        17.08522        -2.67164
O          6.17643         2.51983        -1.02266
O         11.22724        11.94415         0.53698
O          4.57775         9.24864        -1.29555
O         16.58869         4.89645         0.33787
H         16.54832         4.12903         0.94728
O         17.69011         5.27282        -3.15308
H         16.94068         4.81228        -3.60811
O         22.48800         9.77906        -3.04858
H         21.73145         9.28866        -3.44166
O         30.39205        16.97144        -1.20657
H         29.99058        17.57766        -1.86497
O          5.92742        12.52414        -1.56883
H          5.16726        11.98037        -1.87047
O          7.01833        15.87276         2.97083
H          6.37102        15.28667         3.41580
O         10.63814        14.03002         1.89005
H         11.24952        13.25985         1.93004
O          7.13114        17.26847        -0.40525
H          7.83502        17.76049        -0.87698
O          3.38067         3.15250        -1.09387
H          4.13692         2.74900        -1.57718
O          5.50996         5.62176         2.14401
H          5.54501         6.54332         2.47767
O         27.85641         4.24974         3.87744
H         27.18557         4.97243         4.04605
O         29.58285        16.51549         2.33481
H         30.07495        16.12103         3.08474
O          8.02429         7.77196        -2.82783
H          8.68208         7.19027        -3.28388
O         15.35490         4.04895        -3.73341
H         14.65652         3.56307        -4.24720
O         27.65260        18.55720        -2.51659
H         27.82326        17.63745        -2.81608
O         23.87355         7.51906        -2.30480
H         23.70139         8.34752        -2.81922
O         11.08112        15.06897        -1.68355
H         11.27147        13.78073        -3.09688
O         23.77437        14.90733        -3.04375
H         23.05128        15.40898        -3.47872
O         24.92164        18.83026        -2.76708
H         25.89254        18.76069        -2.96985
O         22.07479        16.73359         0.56769
H         22.82866        17.12079         1.06154
O         21.08782        12.12920        -3.38257
H         21.85614        11.54270        -3.58798
O         24.15511         4.07328         2.73195
H         24.54819         4.83607         3.24423
O          7.75300         4.12194         1.46120
H          7.01583         4.61505         1.90504
O          8.80659        11.40622         1.58868
H          9.74617        11.16824         1.75799
O         25.28599         3.69726        -0.71241
H         24.91961         3.97210        -1.57881
O         13.02852         3.25877        -3.73923
H         12.51141         4.03904        -4.03600
O         14.51108        14.58530        -3.10961
H         13.68890        14.08863        -3.34849
O         31.00138         7.55085        -0.62044
H         31.11400         8.44939        -0.99721
O         15.05023         8.91251        -3.79168
H         14.62281         8.17755        -4.29266
O         25.13959         8.08261         1.96574
H         25.47314         7.25923         2.44591
H          1.10959         1.60078         2.58634
H          0.97804         4.05299         2.20582
H          3.13177         0.34516         1.95054
H          0.49961         5.73688         1.05384
H          0.40700         8.18001         1.00841
H          0.47637        10.08349         1.41465
H          0.54923        12.46857         1.86077
H          0.56825        14.37086         2.05520
H          0.67334        16.77549         2.53192
H          1.98339        18.87026         2.76107
H          5.26112         0.26338         1.30418
H          4.16037        20.06558         2.68204
H          8.01962         0.54258         0.99361
H          6.62413        20.00381         2.47761
H         10.04804         0.32953        -0.61843
H          9.06355        20.01226         2.04261
H         12.35121         0.33489        -1.19085
H         11.44044        20.09088         1.35627
H         14.69327         0.35587        -1.25267
H         13.82795        20.16862         0.68128
H         17.00590         0.42053        -0.60379
H         16.19545        20.22507         0.11879
H         19.38471         0.42645        -0.00691
H         18.59545        20.26622        -0.18506
H         21.76093         0.44629         0.67274
H         21.03333        20.33588        -0.52915
H         24.26677         0.47087         1.14337
H         23.45843        20.35490        -0.97255
H         26.46927         0.57783         2.14759
H         26.05838        20.31597        -0.83169
H         28.65602         0.68200         3.37867
H         28.22400        20.28738        -0.09315
H         30.89375         1.72644         3.19332
H         32.35221         3.67775         2.36933
H         32.52714         5.97808         1.56302
H         32.52651         7.96205         1.85708
H         32.51807        10.38074         1.88999
H         32.66522        12.28135         1.50848
H         32.63309        14.71988         1.57936
H         32.57789        16.68009         1.79908
H         30.39482        20.32746         1.06750
H         32.49162        19.14098         1.72647
