         261
 CSIRO Nanostructure Databank - Neutral Graphene Oxide Data Set
C        -11.21919         0.65516        -0.10809
C        -10.05770         1.53314        -0.18571
C         -8.71825         0.86225        -0.20206
C         -7.69744         1.52931         0.67738
C         -6.44430         0.82329         1.15998
C         -5.14092         1.52392         0.95843
C         -3.92577         0.70721         0.60778
C         -2.57354         1.39606         0.57122
C         -1.41399         0.71859         1.26228
C         -0.11028         1.46714         1.55645
C          1.17983         0.69066         1.79747
C          2.51792         1.43575         1.70952
C          3.84920         0.64661         1.79567
C          5.16217         1.36956         1.61763
C          6.49128         0.64269         1.46057
C          7.69922         1.37872         0.92842
C          8.80588         0.68638         0.09675
C         10.12575         1.44975         0.15728
C         11.31836         0.67436        -0.19200
C        -10.07483         2.88764        -0.33107
C         -8.74732         3.59717        -0.57516
C         -7.68607         3.00192         0.35736
C         -6.36929         3.69185         0.21716
C         -5.11229         2.92310         0.40581
C         -3.81953         3.65209         0.57818
C         -2.54986         2.86819         0.41305
C         -1.31676         3.64656         0.76114
C         -0.07922         2.95963         1.23873
C          1.24637         3.66070         0.98082
C          2.51544         2.87383         1.23507
C          3.77742         3.38147         0.58737
C          5.07016         2.67868         0.86408
C          6.32403         3.49480         0.61446
C          7.65200         2.84084         0.55992
C          8.95409         3.66463         0.68544
C         10.15745         2.78690         0.37971
C         -8.74079         5.12742        -0.49202
C         -7.64008         5.86645        -0.20125
C         -6.39700         5.19194         0.27143
C         -5.08568         5.91925         0.32251
C         -3.79045         5.13122         0.39279
C         -2.54501         5.68364        -0.23271
C         -1.25116         4.91288        -0.04486
C          0.04128         5.56681        -0.36860
C          1.29464         4.95383         0.20554
C          2.56108         5.46402        -0.41757
C          3.85329         4.77858        -0.03278
C          5.12281         5.59837         0.02916
C          6.14455         4.96741         0.93100
C          8.16757         5.94524        -0.23792
C          8.91360         4.85262        -0.30309
C         -7.67401         7.40853        -0.19154
C         -6.30783         8.13236        -0.25635
C         -5.03042         7.37632        -0.07006
C         -3.80191         7.89365        -0.76001
C         -2.52266         7.10932        -0.66112
C         -1.22363         7.85026        -0.64281
C          0.05150         7.07031        -0.58080
C          1.28411         7.69374        -1.23003
C          2.57232         6.88664        -0.91042
C          3.83106         7.68788        -0.75288
C          5.10926         7.06620        -0.29751
C          6.39777         7.64442        -0.92812
C          7.68113         7.18077        -0.24740
C         -6.20020         9.48619        -0.89019
C         -5.01597        10.08436        -1.15051
C         -3.74001         9.31101        -1.22929
C         -2.38548         9.94669        -1.28659
C         -1.22229         9.28272        -1.05227
C          0.09810        10.02255        -0.82829
C          1.38082         9.20119        -1.00666
C          2.58672         9.79053        -1.17749
C          3.83491         8.99593        -1.55074
C          5.11461         9.75960        -1.29313
C          6.26944         9.15462        -0.97999
C        -11.19231        -0.67755         0.13511
C        -10.06843        -1.57549         0.54085
C         -8.98343        -1.18112         1.47268
C         -7.68813        -1.34523         1.94075
C         -6.40264        -0.68517         1.47060
C         -5.15427        -1.51250         1.14761
C         -3.96493        -0.78356         0.52947
C         -2.56680        -1.42737         0.39397
C         -1.45173        -0.77715         1.23666
C         -0.15336        -1.54672         1.40170
C          1.15667        -0.83870         1.69661
C          2.48792        -1.59922         1.63953
C          3.80600        -0.86583         1.74794
C          5.09854        -1.68361         1.42135
C          6.44645        -0.87314         1.37953
C          7.68680        -1.51095         0.78906
C          8.98440        -0.76155         0.65987
C         10.26876        -1.48661         0.42744
C         11.37348        -0.67857        -0.14556
C        -10.00912        -2.93610        -0.06992
C         -8.86716        -3.67824        -0.12156
C         -7.52785        -3.03593         0.05512
C         -6.43426        -3.81912         0.73173
C         -5.15499        -3.08376         1.22420
C         -3.83749        -3.73357         0.66663
C         -2.57856        -2.93426         0.57316
C         -1.28468        -3.50854         0.07262
C         -0.11193        -2.97347         0.87509
C          1.18331        -3.71438         0.79074
C          2.54417        -3.12256         1.21377
C          3.61158        -3.36147         0.13602
C          4.92737        -2.60789         0.21155
C          6.15765        -3.22464        -0.39908
C          7.47647        -2.49361        -0.33121
C          9.34072        -3.85089         0.44614
C         10.34997        -2.98741         0.41224
C         -8.84412        -5.11746        -0.38713
C         -7.70240        -5.85254        -0.28951
C         -6.43555        -5.23511         0.21476
C         -5.16509        -5.74033        -0.40625
C         -3.90104        -4.95173        -0.23952
C         -2.60761        -5.58343        -0.74817
C         -1.29999        -4.88552        -0.48530
C         -0.06320        -5.71704        -0.42540
C          1.18509        -5.05223         0.06058
C          2.42535        -5.56368        -0.58894
C          3.60567        -4.63103        -0.66687
C          4.87409        -5.25948        -1.20298
C          6.22111        -4.64699        -0.91314
C          7.62081        -5.43534        -0.63961
C          8.36418        -4.74763         0.52613
C         -7.68267        -7.37010        -0.18906
C         -6.38031        -8.00129        -0.70736
C         -5.15252        -7.15667        -0.93314
C         -3.82933        -7.85710        -1.14612
C         -2.58290        -7.02324        -1.18646
C         -1.27703        -7.78078        -1.31919
C          0.00464        -7.02470        -1.18142
C          1.20804        -7.88671        -0.82299
C          2.44797        -7.03622        -0.84594
C          3.77264        -7.68985        -0.90770
C          4.88162        -6.75372        -1.21833
C          6.77422        -7.84681        -0.92571
C          7.53438        -6.94302        -0.25712
C         -6.13641        -9.43795        -0.40345
C         -4.91913       -10.02643        -0.42044
C         -3.69364        -9.34433        -0.90598
C         -2.33016        -9.90486        -0.64331
C         -1.19133        -9.22413        -0.93189
C          0.21897        -9.70302        -0.57620
C          1.33202        -9.23395        -1.58761
C          2.71121        -9.85877        -1.35884
C          3.86290        -9.15681        -1.12892
C          5.16851        -9.80019        -0.88025
C          6.40881        -9.25162        -0.68727
O          5.33330        -2.21751        -1.11031
O          3.15059        -1.41008         2.92492
O         -5.75880         1.50320         2.26361
O         -1.89994        -0.05963         2.39963
O         -2.70873        -5.94760        -2.15309
O          0.48157        -6.02862         0.89474
O          9.85439        -0.90395         1.76171
O          5.96705        -7.28265        -1.94025
O          7.37146        -1.65445         2.18777
O          4.31657         2.41184        -0.36812
O          3.11707        -3.37086        -1.22753
O         -5.65018         3.12294        -0.93469
O         -2.66085         6.01995        -1.63975
O          8.36936         0.55263        -1.18587
O         -1.10649        -3.69493        -1.34120
O         -2.89045        -3.68150         1.78051
O          4.60873         1.18572         2.93293
O          0.30305        -3.85647         1.94901
O         -0.44840         7.72431         0.62584
O         -7.16089        -2.10009        -0.65095
O          6.93362         3.13564        -0.66062
O         -8.19370         2.53467         1.61960
O          2.22580        -6.08559        -1.95078
O          0.77286        -8.67734         0.36344
O         -2.33324         2.00244        -0.73832
O         -0.53786        -7.26062        -2.49319
O          4.31967         7.86763         0.62210
O          8.15519        -2.41713        -1.33947
O          5.67415        -4.69382        -2.26513
O         -5.55856         8.19913         1.01303
O          2.58083         5.75132        -1.83395
O         -8.42287        -0.00720        -0.99971
O         -0.94467         3.71491         2.15106
O         -5.88468         5.72535         1.52469
O         -6.65627        -4.96548         1.63876
O          2.59943         2.54717         2.64267
O          1.34246         4.96043         1.65697
O          4.80975         4.77638        -1.11768
O         -0.58825         4.71065        -1.34338
O          7.56490         1.12420         2.33763
O          1.14229         7.73924        -2.62667
O         -4.77477        -4.70361        -1.37857
O         -3.84861        -8.79147        -2.25638
O        -10.08412        -1.79602         2.06524
O         -5.37348        -0.93301         2.46390
O         -4.25065         0.00095        -0.65308
O          0.35175        -1.44195         2.74952
O          6.56802         5.46593         1.96441
O          0.37521         1.18280         2.89176
O          4.69721        -7.23538         0.15282
O         -3.98064         8.20589        -2.18478
O         -6.07112        -7.46079        -2.02376
O         -3.63917         4.54275         1.71669
O         -2.11916        -1.24433        -0.96214
H         -2.77397        -0.66933        -1.43356
O         -8.49798         7.87176        -1.26082
H         -8.07172         7.64615        -2.11300
O         -8.32528         3.25486        -1.91918
H         -8.98585         3.59829        -2.55535
O         -5.12950        -3.30531         2.63941
H         -5.29515        -4.25786         2.81309
O          9.09404         4.14521         2.02466
H          8.34886         4.76099         2.22414
O          3.76603         8.64390        -2.94943
H          2.86044         8.25278        -3.11023
O         -7.58962        -1.83800         3.20334
H         -6.64540        -1.74971         3.49095
O          8.37975        -5.29421        -1.82758
H          7.77265        -5.37489        -2.59440
O          5.24827        -2.64459         2.47150
H          5.08447        -2.20826         3.33509
O          2.95048        -3.89161         2.34368
H          2.23718        -3.83334         3.01733
O          0.07975        10.50782         0.52244
H         -0.02492         9.72696         1.11248
O         -7.85547        -7.70851         1.19838
H         -7.70617        -6.91112         1.74982
O          1.04665        -9.31028        -2.96312
H          0.38006        -8.61631        -3.19428
O          6.42194         7.14815        -2.28070
H          5.65246         7.52371        -2.76768
H         12.28372        -1.20514        -0.46776
H         12.20099         1.23479        -0.53705
H         11.13354         3.29929         0.38003
H          9.57385         4.75541        -1.18535
H          8.25349         7.95684         0.29530
H          7.17417         9.75968        -0.81253
H          5.07453        10.85755        -1.36945
H          2.67695        10.88452        -1.07649
H          0.14351        10.91897        -1.49642
H         -2.34977        11.03010        -1.48325
H         -4.99946        11.13238        -1.48686
H         -7.13189        10.06543        -0.97769
H         -8.17736         7.72360         0.75937
H         -9.65445         5.65392        -0.81476
H        -11.02325         3.44749        -0.36917
H        -12.19840         1.11673        -0.31413
H        -12.15955        -1.20632         0.08234
H        -10.97531        -3.40497        -0.32238
H         -9.79972        -5.61439        -0.61726
H         -8.53935        -7.81045        -0.76450
H         -6.99705       -10.00870        -0.02388
H         -4.82286       -11.07148        -0.08837
H         -2.27095       -10.92535        -0.23297
H          0.23854       -10.72872        -0.14409
H          2.77682       -10.95089        -1.49334
H          5.09973       -10.89161        -0.73428
H          7.21039        -9.93544        -0.36300
H          8.17283        -7.27529         0.57447
H          8.04980        -5.06975         1.53755
H         11.37418        -3.39969         0.34857
