         661
 CSIRO Nanostructure Databank - Neutral Graphene Oxide Data Set
C          6.93949        31.79970        -3.20443
C          6.74165        33.11740        -2.93027
C          9.52060        27.66384        -2.46628
C          9.25241        28.98638        -2.13930
C          8.28815        29.75871        -2.89551
C          8.65338        31.69908        -1.35957
C          7.99224        31.04904        -2.55620
C          8.76208        33.18705        -1.49208
C          7.69149        33.87517        -2.12942
C          8.65736        36.01290        -1.45699
C          7.60578        35.26662        -2.05018
C          8.64132        37.43568        -1.44791
C         11.66736        23.19638        -1.66926
C         11.16030        24.50110        -1.10411
C         10.61408        25.51831        -2.06751
C         10.91664        27.34979        -0.38761
C         10.36606        26.81150        -1.67573
C         10.74136        28.85401        -0.06236
C          9.99201        29.64258        -1.09528
C         10.91677        31.73658        -0.16548
C          9.91913        31.02265        -0.90848
C         10.95625        33.17225        -0.25852
C          9.84506        33.88301        -0.92486
C         11.01086        36.06491        -0.71803
C          9.79756        35.30093        -0.97220
C         10.90250        37.50609        -0.53801
C          9.71784        38.19146        -0.91699
C         10.73341        40.41076        -0.37287
C          9.66962        39.63072        -0.86050
C         10.78257        41.82439        -0.43503
C         13.83430        18.83127        -0.91311
C         13.37617        20.07070        -0.21392
C         12.61859        20.95529        -1.18002
C         12.94223        22.76300         0.45895
C         12.35809        22.29444        -0.85861
C         12.77681        24.22169         0.68006
C         12.15572        25.10840        -0.12253
C         12.92033        27.24528         1.29400
C         11.93963        26.51626         0.34074
C         13.10003        28.73113         0.93484
C         11.99685        29.58267         0.37634
C         13.05601        31.75950         1.17643
C         12.01692        30.97010         0.41961
C         13.04085        33.27363         1.14248
C         12.06283        33.91371         0.22488
C         13.49206        36.09521         0.18670
C         12.27007        35.28446        -0.23666
C         13.16620        37.51822         0.67103
C         11.91015        38.21587         0.25839
C         13.17675        40.46779         0.42400
C         11.85771        39.71208         0.29029
C         13.19903        41.85353        -0.02505
C         11.99629        42.55870        -0.24325
C         13.29170        44.69229        -0.28590
C         12.07487        43.99390        -0.34690
C         13.35844        46.11952        -0.18106
C         16.37687        14.70064        -0.58888
C         16.27040        16.08629        -0.31449
C         15.21939        16.82503        -0.88559
C         15.96813        18.84107         0.32809
C         14.99920        18.17606        -0.51470
C         15.79660        20.25833         0.54877
C         14.57099        20.86621         0.31284
C         15.66494        23.16720         0.77397
C         14.43118        22.33938         0.41858
C         15.67258        24.60748         1.21465
C         14.51226        25.32390         1.53715
C         15.56537        27.46835         1.22600
C         14.37334        26.70548         1.37767
C         15.44956        28.95080         0.88813
C         14.68729        29.93715         1.78466
C         15.51727        31.93485         0.65463
C         14.43745        31.19328         1.33314
C         15.63447        33.32966         1.11528
C         14.33490        33.99418         1.64269
C         15.33181        36.27478         1.71195
C         14.34236        35.46482         1.26028
C         15.56802        37.64129         1.26343
C         14.38959        38.33772         0.91416
C         15.67929        40.36670         0.67432
C         14.43097        39.70595         0.62739
C         15.73829        41.74025         0.11775
C         14.49040        42.50521        -0.23463
C         15.76154        44.66218        -0.34583
C         14.54985        43.98310        -0.29556
C         15.80456        46.10030        -0.42869
C         14.55354        46.82946        -0.23047
C         15.39688        49.18309        -0.33513
C         14.52012        48.25222         0.14990
C         15.75403        50.51080         0.11702
C         18.76726        10.33313        -0.30567
C         18.52436        11.69835         0.19129
C         17.54330        12.55931        -0.44692
C         18.45150        14.53256         0.73336
C         17.41819        13.89689        -0.05441
C         18.24744        15.92144         1.28682
C         17.20776        16.74455         0.55705
C         18.13007        18.82580         1.62674
C         17.07380        18.11131         0.84280
C         18.14210        20.32836         1.51305
C         16.94705        21.04617         0.97467
C         18.17808        23.19296         1.35569
C         16.91400        22.41149         1.04580
C         18.12451        24.60137         0.69913
C         16.84865        25.36060         1.05494
C         18.06276        27.59598         0.96236
C         16.79358        26.77665         1.08647
C         17.88459        28.93565         0.27546
C         16.70074        29.61686         0.33522
C         17.98659        31.84725         0.24942
C         16.69752        31.11952         0.15686
C         18.05041        33.14959         0.68338
C         16.89910        33.88644         1.17344
C         18.17208        36.05086         1.15424
C         17.17587        35.23150         1.66946
C         18.13480        37.52814         1.16043
C         16.84375        38.27125         1.24152
C         18.17839        40.39627         1.22468
C         16.85833        39.67335         1.00549
C         18.17655        41.87118         0.86035
C         16.94889        42.56480         0.36748
C         18.29177        44.62240        -0.03142
C         17.05819        43.85755        -0.43414
C         18.30974        46.00880        -0.26141
C         17.08072        46.72076        -0.54446
C         18.34301        48.87149        -0.51088
C         17.23638        48.10975        -0.83594
C         18.27651        50.39536        -0.61025
C         17.00877        51.07683        -0.04810
C         18.34554        53.18334         0.24293
C         17.15446        52.47829         0.26311
C         18.32779        54.65827         0.57009
C         21.31812         6.16296        -0.42412
C         21.26344         7.51017        -0.18716
C         20.10508         8.30877        -0.73622
C         21.08535        10.31677         0.52581
C         19.95004         9.68109        -0.11229
C         20.91640        11.61504         1.30708
C         19.64417        12.38448         0.97297
C         20.83389        14.58380         1.32771
C         19.63309        13.85766         1.01865
C         20.76830        16.02045         1.47057
C         19.53481        16.68928         1.43886
C         20.69557        18.91292         2.01713
C         19.40403        18.05832         2.06322
C         20.72511        20.35627         1.62848
C         19.43172        21.05169         1.36670
C         20.66668        22.76100         0.24729
C         19.41490        22.36037         0.99805
C         20.69139        24.96859         1.22424
C         19.35554        25.49447         0.97830
C         20.31371        27.37235        -0.40848
C         19.27376        26.79155         0.53150
C         20.46585        28.85231        -0.12858
C         19.14164        29.60079        -0.17825
C         20.55970        31.73724         0.14258
C         19.20339        31.10175        -0.13066
C         20.45186        33.25528        -0.04441
C         19.37986        33.85045         0.87506
C         20.53491        36.01443         0.48979
C         19.34005        35.35357         0.68021
C         20.54072        37.50106         0.29753
C         19.26886        38.19040         0.74454
C         20.64359        40.34105         0.68305
C         19.28873        39.67707         0.46200
C         20.67271        41.78567         0.66372
C         19.47392        42.52367         0.62396
C         20.70073        44.64335         0.39898
C         19.47184        43.93977         0.35892
C         20.73935        45.99117         0.03724
C         19.54756        46.71352        -0.23817
C         20.79692        48.84578        -0.31557
C         19.58499        48.15868        -0.33700
C         20.82324        50.26941         0.03973
C         19.51053        51.03004         0.04106
C         20.83881        53.13787         0.28879
C         19.59804        52.49877         0.11275
C         20.89291        54.57249         0.42447
C         19.68047        55.33405         0.49653
C         20.97105        57.41728         0.57928
C         19.72813        56.71244         0.55787
C         21.01730        58.81965         0.65655
C         23.89242         3.38484        -0.19761
C         22.68233         3.99448        -0.42140
C         23.66693         6.12909         0.61244
C         22.41753         5.34259         0.08138
C         23.60848         7.58285         0.55413
C         22.40843         8.23523         0.33050
C         23.48740        10.37850         1.08126
C         22.30865         9.66817         0.59751
C         23.37759        11.79445         1.37025
C         22.17068        12.46210         1.30718
C         23.26535        14.68644         1.54284
C         22.08122        13.91340         1.43669
C         23.22376        16.09975         1.60707
C         21.98966        16.74560         1.66010
C         23.38210        18.86283         1.87049
C         22.00528        18.14604         2.21200
C         23.31554        20.44233         1.98826
C         22.02958        21.04408         1.38184
C         23.11787        23.22764         0.77329
C         21.98097        22.33338         0.88222
C         23.00747        24.59354         0.42479
C         21.80843        25.37472         0.48797
C         22.94108        27.37934        -0.52069
C         21.65443        26.50582        -0.55086
C         22.91067        28.76233        -0.85263
C         21.74884        29.59044        -0.44648
C         22.96149        31.87861        -0.44356
C         21.66949        31.11894        -0.73345
C         22.96690        33.17034         0.12439
C         21.77551        33.91975         0.24544
C         23.04448        36.02038         0.53995
C         21.78538        35.29681         0.46421
C         23.04394        37.39944         0.61015
C         21.77210        38.13464         0.96696
C         23.10263        40.29895         0.72042
C         21.82362        39.62636         0.72937
C         23.13077        41.74241         0.72741
C         21.93098        42.46319         0.70249
C         23.23991        44.61356         0.60466
C         21.92571        43.95388         0.94407
C         23.28603        46.01113         0.26299
C         22.03980        46.63456        -0.20141
C         23.34184        48.84421        -0.33465
C         22.06304        48.13544        -0.45605
C         23.31662        50.33638        -0.55775
C         22.07605        51.01969        -0.02850
C         23.35399        53.10087         0.24512
C         22.08757        52.39529         0.18350
C         23.38127        54.49685         0.38531
C         22.14449        55.24253         0.45025
C         23.44203        57.34450         0.58482
C         22.19055        56.66332         0.54007
C         23.47444        58.76031         0.67017
C         22.25178        59.50716         0.70355
C         23.53748        61.58100         0.83613
C         22.31196        60.92582         0.78642
C         25.01305         4.07285         0.34386
C         26.12268         6.20228         0.94135
C         24.97059         5.44259         0.61888
C         26.09584         7.60574         1.03774
C         24.89160         8.36801         0.53238
C         25.94438        10.47458         1.41210
C         24.73402         9.75121         1.11880
C         25.91656        11.86145         1.61508
C         24.59230        12.53585         1.87301
C         25.82325        14.76678         1.52650
C         24.56549        13.98631         1.45176
C         25.77915        16.25740         1.71258
C         24.44570        16.98432         1.68679
C         25.54314        18.90949         0.57846
C         24.36070        18.26680         0.85506
C         25.68336        20.37277         0.74382
C         24.55363        21.14968         1.35761
C         25.62801        23.21593         0.19606
C         24.46467        22.61501         0.95998
C         25.39489        24.48370        -0.56881
C         24.13220        25.23351        -0.32923
C         25.46654        27.47506        -0.48166
C         24.14594        26.70757        -0.51063
C         25.38708        28.85688        -1.10226
C         24.11142        29.31550        -1.39077
C         25.46615        31.82455        -0.71133
C         24.15300        31.41659        -1.02257
C         25.57197        33.07724         0.07989
C         24.24657        33.81404         0.45040
C         25.52289        35.93741         0.63154
C         24.29358        35.27764         0.53366
C         25.55903        37.38021         0.64929
C         24.30812        38.13587         0.27180
C         25.56937        40.25454         0.72102
C         24.30914        39.58646         0.67406
C         25.61265        41.69981         0.74156
C         24.40483        42.42531         0.72319
C         25.69129        44.58012         0.76413
C         24.40704        43.86838         0.66645
C         25.72702        46.07404         0.54943
C         24.47508        46.73267         0.16310
C         25.85074        48.76336        -0.59590
C         24.51084        48.12836        -0.23387
C         25.81750        50.28802        -0.49316
C         24.58122        50.99083        -0.08355
C         25.85585        53.06114         0.31575
C         24.59995        52.35862         0.17773
C         25.87633        54.44500         0.42015
C         24.63996        55.19381         0.44652
C         25.92855        57.30280         0.60547
C         24.66685        56.59705         0.54691
C         25.93732        58.70315         0.69215
C         24.73141        59.45135         0.72336
C         24.73778        60.86259         0.80638
C         27.23032         8.34186         1.37839
C         28.39625        10.49906         1.55088
C         27.21048         9.76924         1.43800
C         28.38653        11.91965         1.54201
C         27.12455        12.61658         1.63380
C         28.29370        14.74385         1.27648
C         27.11946        14.03982         1.59924
C         28.25496        16.15072         0.97983
C         27.00696        16.93728         1.20114
C         28.07463        18.97310         0.21621
C         26.81920        18.13698         0.28592
C         28.03683        20.29344        -0.14205
C         26.78613        21.04466        -0.00858
C         27.87902        23.00877        -1.08812
C         26.77475        22.38678        -0.24274
C         27.91764        24.51696        -0.92739
C         26.61364        25.23519        -1.05038
C         27.90510        27.48532        -1.28755
C         26.62327        26.72535        -1.12275
C         27.83933        28.92951        -1.38010
C         26.61002        29.64754        -1.26872
C         27.89514        31.88881        -1.14933
C         26.61434        31.09920        -1.11362
C         27.94509        33.39009        -0.80043
C         26.76962        33.88205        -0.00455
C         28.01194        35.90701         0.50007
C         26.77213        35.21092         0.43571
C         28.00267        37.28235         1.11060
C         26.75658        38.07545         0.76353
C         28.05460        40.21484         0.65164
C         26.76749        39.50176         0.71665
C         28.08714        41.68476         0.78878
C         26.89408        42.37596         0.72681
C         28.22266        44.53946         0.70697
C         26.93712        43.83683         0.36147
C         28.23646        46.04303         0.87180
C         27.01164        46.71056         0.30763
C         28.35290        48.78808        -0.09032
C         27.00290        48.21339         0.27717
C         28.42329        50.21033        -0.62129
C         27.12173        51.00416        -0.42247
C         28.41156        53.04891         0.25962
C         27.13487        52.25787         0.43770
C         28.36870        54.45054         0.37014
C         27.14657        55.16361         0.46989
C         27.13962        56.56176         0.56154
C         29.57802        12.64708         1.37540
C         30.71477        14.75913         0.81153
C         29.55114        14.04467         1.17138
C         30.66800        16.14095         0.53357
C         29.40230        16.83262         0.62734
C         30.57641        18.95779        -0.08083
C         29.39064        18.34195         0.60992
C         30.52141        20.32307        -0.44963
C         29.27025        21.02361        -0.44696
C         30.42454        23.05304        -1.19511
C         29.23037        22.36725        -0.83652
C         30.36160        24.48006        -1.64346
C         29.15827        25.28773        -1.22782
C         30.33358        27.44916        -1.83182
C         29.07736        26.75815        -1.47498
C         30.40064        28.93505        -1.61285
C         29.11704        29.67129        -1.51067
C         30.47384        31.74258        -0.74233
C         29.18851        31.14105        -1.20889
C         30.46655        33.12463        -0.27147
C         29.26204        33.85630        -0.18627
C         30.46021        35.87358         0.60600
C         29.23996        35.21574         0.30445
C         30.49752        37.28362         0.87086
C         29.30569        37.99576         0.91848
C         30.56279        40.18765         1.24756
C         29.33240        39.46113         0.76492
C         30.56982        41.65065         0.86290
C         29.37365        42.36152         0.77019
C         30.67887        44.50441         0.67793
C         29.40025        43.81881         0.71888
C         30.70027        45.93531         0.45714
C         29.52307        46.67054         0.40338
C         30.82140        48.72433        -0.41306
C         29.51321        48.06183         0.00819
C         30.81222        50.18637        -0.01092
C         29.66035        50.92187        -0.09856
C         29.60838        52.33608         0.14676
C         31.83348        16.85279         0.17029
C         32.97536        18.91318        -0.57683
C         31.79644        18.23395        -0.16481
C         32.95516        20.26994        -0.91000
C         31.70415        20.99603        -0.88541
C         32.87788        22.98534        -1.90391
C         31.65194        22.36445        -1.24520
C         32.92642        24.49345        -1.79011
C         31.63976        25.20329        -1.97946
C         32.90219        27.47610        -1.84552
C         31.61691        26.71609        -2.04715
C         32.89121        28.84778        -1.28812
C         31.60038        29.48922        -0.86744
C         32.92450        31.61410        -0.41749
C         31.64500        31.00591        -0.75247
C         32.94216        33.00503         0.05196
C         31.70616        33.69115         0.18790
C         32.98888        35.81670         0.93939
C         31.68731        35.07658         0.70120
C         32.99118        37.28652         0.74997
C         31.77616        38.00781         0.85297
C         33.01682        40.12304         0.67443
C         31.80818        39.42082         0.87135
C         33.03236        41.57240         0.66160
C         31.83541        42.32095         0.75658
C         33.14393        44.43640         0.51921
C         31.86584        43.75960         0.65845
C         33.18597        45.82769         0.39711
C         31.98990        46.60928         0.29014
C         32.03915        47.96387         0.03404
C         34.17008        20.97370        -1.16652
C         35.37601        23.06182        -1.50111
C         34.17648        22.32981        -1.48815
C         35.39259        24.47620        -1.58744
C         34.10535        25.17051        -1.69424
C         35.33821        27.26752        -1.02226
C         34.15616        26.65695        -1.72986
C         35.31333        28.76619        -1.04647
C         34.10456        29.48879        -0.95961
C         35.37274        31.46494         0.10296
C         34.10464        30.88272        -0.51545
C         35.41858        32.97918         0.02695
C         34.19253        33.66112         0.26216
C         35.46365        35.84881         0.34437
C         34.30426        35.04703         0.88712
C         35.42274        37.21562         0.22897
C         34.19536        37.97001         0.47220
C         35.44454        40.09802         0.16539
C         34.21026        39.38744         0.42537
C         35.46956        41.48612         0.22108
C         34.28718        42.25362         0.46029
C         34.32837        43.65303         0.43747
C         36.59339        25.19637        -1.58408
C         37.75969        27.36885        -1.73199
C         36.63032        26.62937        -1.49959
C         37.70979        28.87558        -1.78540
C         36.61578        29.40843        -0.87580
C         37.85586        31.60056        -0.71102
C         36.66975        30.80159        -0.35942
C         37.84438        32.98149        -0.51096
C         36.64116        33.65632        -0.10161
C         37.85896        35.85779        -0.44438
C         36.77915        35.11212         0.30188
C         37.78630        37.22642        -0.56631
C         36.61779        37.96008        -0.16867
C         36.61498        39.34220        -0.16983
C         39.01437        29.57851        -1.54568
C         40.26698        31.67574        -1.27816
C         39.04149        30.90809        -1.17317
C         40.25652        33.02825        -1.13670
C         39.04861        33.74479        -0.80587
C         39.02310        35.12962        -0.82605
O         25.46288        23.43613         1.64174
O         30.78398        24.62436        -3.03472
O         25.22427        14.37119         0.20122
O         12.23366        40.28224         1.56207
O         15.30547        41.79088        -1.28735
O         15.19252        23.04325        -0.61994
O         24.35830        24.43767        -1.57645
O         19.02458        30.39569        -1.39384
O         28.75691        24.96540         0.17063
O         26.69270        16.92956         2.62476
O         21.37196        29.17666         0.93565
O         12.07741        37.61045         1.62239
O         22.68850         5.52366         1.50406
O         15.70731        31.66859        -0.77422
O         20.62463        19.93707         3.06562
O         13.36344        24.60517         1.89596
O         21.67380        25.94826        -1.80491
O         22.10618        47.16238        -1.56621
O         12.06078        35.52795        -1.66268
O         14.24566        28.86255        -0.03051
O         25.72737        45.41415         1.95697
O         18.18678        24.42910        -0.67027
O         28.86596        39.83733        -0.57304
O         30.84016        27.15786        -3.19215
O         23.99301        30.52380        -2.09926
O         17.72230        19.67084         2.76285
O         12.44216        32.51567         2.26073
O         25.01440        33.04536         1.43676
O         18.49868        11.80793         1.67596
O         32.22401        35.32034         2.08798
O         25.71389        20.82079         2.16651
O         26.34992        25.92647        -2.30685
O         28.61960        31.77758        -2.42535
O         33.83343        27.28776        -2.99074
O         17.30429        42.66590         1.77377
O         13.52885        29.28367         2.21530
O         20.60643        23.16382        -0.89328
O         24.25343        17.99568         2.82995
O         19.99947        50.45123         1.28025
O         16.29212        35.76966         2.60609
O         16.16493        48.77081        -1.44928
O         10.53683        26.57092         0.80574
O         26.36426        51.04345        -1.66167
O         29.89182        29.57067        -2.79895
O         37.03343        29.63887         0.52026
O         18.28593        23.41747         2.80184
H         18.22932        22.54508         3.25148
O         20.28594         8.46802        -2.16201
H         21.13147         8.93890        -2.31035
O         14.38213        33.89640         3.07478
H         13.64962        33.29344         3.35176
O         17.27341        43.50997        -1.82803
H         16.54915        42.88787        -2.08836
O         26.14535        48.39414        -1.95950
H         25.40053        48.70159        -2.52012
O         35.19607        26.90418         0.39194
H         35.93389        27.33106         0.87945
O         21.35008        31.29823        -2.12592
H         22.11846        30.97532        -2.65247
O         31.36101        29.01798         0.51560
H         32.11072        29.32604         1.07015
O         19.76069        33.67360         2.27483
H         19.08679        34.12112         2.83129
O         20.78002        11.18756         2.69969
H         19.81529        11.05155         2.85481
O         20.95354        31.47666         1.49644
H         20.53324        32.13154         2.10246
O         26.69845        48.62991         1.64270
H         27.31599        48.13111         2.23229
O          7.72698        31.49003        -0.22685
H          7.91615        30.60250         0.15048
O         26.86745        43.85338        -1.11282
H         27.59669        43.29348        -1.45623
O         27.84324        34.12045        -2.06554
H         28.33916        33.58448        -2.73126
O         37.27213        29.24838        -3.13707
H         37.86133        28.80413        -3.78209
O         28.62296        50.09869        -2.06275
H         27.75878        49.79471        -2.43529
O         22.04113        17.92926         3.64461
H         21.97469        18.81828         4.06259
O         24.31871        38.18537        -1.21432
H         24.42865        37.26560        -1.53831
O         12.51506        19.59444         0.86429
H         12.18060        20.38419         1.35525
O         20.68389        37.73991        -1.14213
H         20.17842        37.04448        -1.61527
O         17.69764        15.69500         2.63578
H         18.09428        16.37538         3.23908
O         21.80407        44.10890         2.41055
H         22.61088        43.72515         2.81611
O         19.21379        17.76266         3.47810
H         19.09460        18.63451         3.92305
O         30.90238        48.68660        -1.87440
H         30.11406        49.18934        -2.21415
O          9.86358        28.93681         1.11231
H         10.03311        28.12060         1.64571
O         32.73188        22.69376        -3.32977
H         31.98172        23.25147        -3.65339
O         37.27103        35.05711         1.68480
H         36.50265        34.78288         2.24436
O         27.89473        37.07816         2.57910
H         28.66898        36.54391         2.85991
O          9.99135        24.12325        -0.28869
H          9.79230        24.90724         0.28179
O         18.34153        50.75602        -2.01439
H         17.58514        50.31373        -2.45878
O         24.44826        12.58840         3.33225
H         24.11206        11.72006         3.63959
O         17.37498        55.34416        -0.25604
H         17.64619        55.23486        -1.19040
O         27.17060        51.74752         1.80962
H         27.19167        52.51659         2.41686
O         20.84720        24.23698         2.34736
H         19.96195        24.01716         2.74714
O         12.29870        22.12826         1.59071
H         12.40235        22.72564         2.36319
O         29.55835        18.73271         2.02907
H         30.35680        18.27407         2.36733
O         23.32564        20.76764         3.38373
H         24.24558        20.61616         3.69823
O         26.68678        17.51611        -1.03548
H         26.55460        18.22579        -1.69820
O         14.35787        36.24428        -0.96881
H         13.80080        36.09074        -1.76981
O         19.63134        27.27404        -1.66960
H         20.06842        26.50691        -2.14055
O         25.85635        27.61857         0.91737
H         25.16047        28.12668         1.38545
O         21.57746        37.93855         2.39708
H         22.31888        38.36656         2.87365
O         18.98390        39.85402        -0.94693
H         19.64179        39.30818        -1.44460
O         25.18730         8.58926        -0.90038
H         24.52116         9.22192        -1.24401
O         35.23270        31.18381         1.53140
H         35.81958        30.41207         1.71905
O         20.04007        33.56566        -1.38961
H         20.40115        32.86829        -1.99155
O         23.30200        50.50855        -2.02628
H         23.59101        51.42569        -2.22215
O         27.54959        22.77110        -2.48274
H         27.58012        21.80720        -2.65304
O         28.19254        46.32509         2.33897
H         27.34859        45.90989         2.65573
O         34.66800        34.76914         2.28400
H         33.82060        34.57684         2.75379
O         30.48233        40.15133         2.71010
H         31.29336        40.57073         3.06737
O         12.30665        27.15239         2.58771
H         12.75228        27.80162         3.17619
O         18.40402        28.01276         2.34156
H         18.64427        27.20836         2.84990
O         18.48865        40.30622         2.63124
H         17.94781        40.98357         3.09312
H          6.28517        31.27519        -3.91701
H          5.91845        33.66675        -3.41020
H          9.02647        27.22073        -3.34394
H          7.75777        29.26726        -3.72569
H          6.75187        35.79369        -2.50021
H          7.75804        37.95883        -1.84226
H         11.29711        22.86193        -2.65100
H         10.17030        25.15981        -3.00978
H          8.78224        40.13461        -1.27185
H          9.89503        42.36997        -0.78920
H         13.11387        18.30031        -1.55415
H         12.30352        20.55364        -2.15556
H         11.13783        44.56588        -0.41744
H         12.41948        46.67158        -0.02470
H         15.62765        14.23336        -1.24447
H         14.49374        16.32041        -1.53997
H         13.79396        48.54179         0.92473
H         14.97946        51.12098         0.61101
H         17.96284         9.84025        -0.87240
H         16.88329        12.14705        -1.22413
H         16.23512        53.03603         0.50193
H         17.95203        54.76903         1.62656
H         20.52651         5.67924        -1.01644
H         19.15351         7.73567        -0.60701
H         18.78831        57.28242         0.59826
H         20.07807        59.39166         0.68679
H         24.03825         2.34775        -0.53295
H         21.89991         3.48148        -0.99965
H         23.56548        62.67792         0.90020
H         21.37561        61.50145         0.81130
H         25.97377         3.54276         0.41641
H         27.07335         5.67486         1.11682
H         26.89972        59.23502         0.73365
H         25.69862        61.39541         0.84731
H         28.17304         7.81721         1.59734
H         29.36109         9.97050         1.54888
H         29.30915        55.02067         0.31920
H         28.09686        57.10365         0.59084
H         30.53334        12.10774         1.29393
H         31.67335        14.22528         0.73371
H         31.75591        50.66885         0.28935
H         30.56230        52.88090         0.23405
H         32.79099        16.31562         0.10708
H         33.92653        18.36174        -0.60694
H         34.15843        46.32999         0.28238
H         33.01766        48.45835        -0.07017
H         35.12532        20.45233        -0.99931
H         36.32393        22.53034        -1.32376
H         36.41461        42.01838         0.03672
H         35.29289        44.16077         0.28715
H         37.54314        24.64588        -1.66802
H         38.69006        26.86074        -2.03490
H         38.63422        37.78349        -0.99406
H         37.53398        39.88542        -0.43613
H         39.94687        29.08926        -1.86868
H         41.19410        31.14747        -1.54400
H         41.17982        33.60856        -1.28046
H         39.91443        35.68456        -1.15736
