         314
 CSIRO Nanostructure Databank - Neutral Graphene Oxide Data Set
C         30.44276        56.91311        -1.22194
C         30.44602        58.29103        -1.53724
C         29.26762        58.96356        -1.96290
C         30.49436        61.04081        -2.22906
C         29.30352        60.31727        -2.29464
C         32.83314        52.80206         0.04829
C         32.81519        54.20879        -0.11923
C         31.63365        54.86699        -0.53376
C         32.83903        57.00505        -0.65014
C         31.61911        56.25446        -0.79480
C         32.86199        58.38176        -1.00713
C         31.67057        59.02835        -1.44976
C         32.92634        61.11595        -1.76480
C         31.69925        60.41229        -1.81315
C         35.24490        48.58322         0.83393
C         35.17242        50.00598         0.91489
C         34.03495        50.69769         0.53687
C         35.17698        52.90309         0.69960
C         34.00033        52.13287         0.44036
C         35.17598        54.29537         0.57254
C         34.00759        54.97009         0.13342
C         35.21234        57.13651        -0.00881
C         34.01668        56.38309        -0.14197
C         35.28573        58.46414        -0.52465
C         34.09260        59.09854        -0.97179
C         35.36020        61.16324        -1.36928
C         34.12145        60.47616        -1.37531
C         37.55229        44.18393         0.63966
C         37.31498        45.54918         0.49039
C         36.27407        46.40449         0.87524
C         37.69904        48.53844         1.30299
C         36.41445        47.83007         0.93104
C         37.63634        50.01753         1.59093
C         36.34761        50.75696         1.41226
C         37.67751        52.98006         1.23803
C         36.37788        52.24801         1.24500
C         37.66507        54.35957         1.23715
C         36.36311        55.06068         1.03055
C         37.64614        57.31723         0.73839
C         36.35188        56.55333         0.73376
C         37.72914        58.44209        -0.23656
C         36.55320        59.13797        -0.66220
C         37.77043        61.34701        -1.09302
C         36.58061        60.51992        -1.09778
C         40.31767        40.42540        -0.68802
C         40.22038        41.59357         0.03642
C         38.99259        42.32496         0.08474
C         40.11500        44.33597         1.04373
C         38.88121        43.64676         0.48157
C         40.30140        45.82061         1.12008
C         39.26435        46.66216         0.69631
C         40.19437        48.59027         1.75400
C         39.07483        47.95993         1.18110
C         40.14571        50.08609         2.05681
C         38.89240        50.80293         1.54989
C         40.17733        52.89389         1.27340
C         38.89032        52.16537         1.37165
C         40.15903        54.40235         1.49184
C         38.86963        55.18310         1.76090
C         40.20154        57.36317         0.84079
C         38.91718        56.67955         1.23829
C         40.22591        58.43297        -0.10088
C         38.98722        58.79368        -0.71299
C         40.32950        61.36385        -1.06190
C         39.03630        60.83598        -1.32241
C         42.90857        37.06006        -3.14721
C         42.85923        38.13549        -2.23020
C         41.62643        38.70417        -1.83167
C         42.78792        40.28358        -0.35759
C         41.57616        39.77815        -0.93440
C         42.72495        41.40498         0.61541
C         41.38678        42.08144         0.80919
C         42.64915        44.14791         1.74130
C         41.33789        43.49277         1.32303
C         42.61629        45.61897         2.08830
C         41.41126        46.43917         1.74770
C         42.63519        48.59127         2.32101
C         41.39605        47.85192         1.92242
C         42.66476        50.07051         2.08022
C         41.42381        50.68825         1.45031
C         42.65825        52.86835         1.50462
C         41.45236        52.19015         1.48282
C         42.65628        54.31079         1.63576
C         41.45644        54.91464         1.91988
C         42.65270        57.38088         0.82392
C         41.42551        57.02522         1.41470
C         42.66102        58.55553         0.02483
C         41.43271        59.17182        -0.35627
C         42.72861        61.23606        -0.84107
C         41.46612        60.55994        -0.82656
C         45.42069        34.88033        -4.85949
C         44.19558        35.41872        -4.46874
C         45.36131        37.03468        -3.01640
C         44.13857        36.50051        -3.54667
C         45.33142        38.10769        -2.08928
C         44.07495        38.66885        -1.68838
C         45.26064        40.14791        -0.05873
C         44.01510        39.72134        -0.73290
C         45.23204        41.44266         0.79595
C         43.96419        42.16911         0.92506
C         45.19667        44.13500         1.71814
C         43.95695        43.47505         1.42374
C         45.20806        45.54332         2.20235
C         43.91704        46.33991         2.33451
C         45.27155        48.61654         2.42962
C         43.93307        47.83650         2.46726
C         45.16827        50.04947         1.88908
C         43.95773        50.76422         1.83985
C         45.15950        52.87122         1.47669
C         43.93978        52.15842         1.58227
C         45.20328        54.36738         1.42458
C         43.91393        55.12857         1.56435
C         45.13908        57.11124         0.37197
C         43.83872        56.48160         0.85762
C         45.11269        58.55824         0.10811
C         43.93455        59.21058        -0.19418
C         45.18615        61.32823        -0.61442
C         43.94578        60.61712        -0.56376
C         46.61728        35.39203        -4.35964
C         47.81561        37.00876        -2.92894
C         46.61505        36.47355        -3.43553
C         47.80541        38.08917        -2.01515
C         46.55631        38.64635        -1.58105
C         47.75100        40.25843        -0.16047
C         46.55315        39.70429        -0.62606
C         47.74995        41.38965         0.80185
C         46.49242        42.15321         1.02826
C         47.73280        44.19365         1.77972
C         46.45246        43.47186         1.49238
C         47.74512        45.66573         1.70696
C         46.47309        46.34971         2.03684
C         47.66682        48.51760         1.64357
C         46.33824        47.80718         1.62514
C         47.59855        49.95361         1.21524
C         46.35838        50.73961         1.58333
C         47.67101        52.92009         1.37197
C         46.36152        52.14587         1.40996
C         47.61421        54.28602         0.72813
C         46.42380        55.01954         0.85001
C         47.64449        57.04238         0.21683
C         46.43379        56.39700         0.53070
C         47.64879        58.52548         0.17137
C         46.37031        59.31158         0.16334
C         47.64960        61.40733        -0.29834
C         46.40107        60.72584        -0.28388
C         49.00799        38.64427        -1.52445
C         50.23745        40.39043        -0.34765
C         49.00361        39.74026        -0.64358
C         50.29141        41.60759         0.33663
C         49.08407        42.08077         1.05788
C         50.25673        44.33749         1.26735
C         49.07556        43.49987         1.53902
C         50.20617        45.72460         1.48993
C         48.92533        46.38723         1.68202
C         50.14757        48.56736         1.69432
C         48.88421        47.85309         1.68714
C         50.15606        50.04629         1.64723
C         48.85317        50.73044         1.50868
C         50.02843        52.64056         0.24949
C         48.80138        52.06686         0.84957
C         49.99120        54.09145        -0.12548
C         48.79666        54.89456         0.23748
C         50.11911        56.96606        -0.22260
C         48.85016        56.30223         0.06075
C         50.13722        58.46082        -0.28626
C         48.86659        59.24996        -0.27065
C         50.13160        61.40044        -0.30625
C         48.88825        60.74382        -0.17340
C         51.46265        42.38327         0.34967
C         52.65815        44.49334         0.75421
C         51.47888        43.73098         0.80566
C         52.68224        45.84975         1.18963
C         51.41376        46.48374         1.48840
C         52.63517        48.64526         1.88864
C         51.36491        47.88792         1.71047
C         52.64749        50.09512         1.47978
C         51.36790        50.74909         1.13181
C         52.57916        52.51837        -0.18459
C         51.32611        51.94274         0.47507
C         52.56349        54.04388        -0.30437
C         51.28202        54.77873        -0.49164
C         52.55423        56.90087        -0.81148
C         51.27837        56.26418        -0.53603
C         52.71016        58.26466        -1.25098
C         51.25406        59.29750         0.29332
C         52.59912        61.24809        -0.62457
C         51.36982        60.69452        -0.26095
C         53.88642        46.54432         1.32580
C         55.15488        48.66680         1.57980
C         53.94920        47.87626         2.01427
C         55.14695        50.01926         1.21140
C         53.90340        50.72324         1.04369
C         55.08757        52.66575         0.22618
C         53.87023        51.99389         0.45859
C         55.05041        54.01927        -0.34735
C         53.74056        54.73198        -0.38316
C         54.94278        56.90270        -0.30809
C         53.75325        56.17903        -0.53732
C         54.77850        58.28423        -0.08384
C         53.77066        59.03494        -0.69917
C         55.04938        61.19855        -0.86400
C         53.84171        60.51195        -0.71625
C         56.36296        50.73380         0.96961
C         57.57760        52.84130         0.45108
C         56.34619        52.07215         0.55842
C         57.60096        54.16032         0.07253
C         56.34322        54.79162        -0.39670
C         57.58653        57.04275        -0.52506
C         56.28619        56.29092        -0.49923
C         57.70294        58.53539        -0.53954
C         56.64374        59.38151        -0.25510
C         57.45087        61.12172        -1.68921
C         56.38826        60.61476        -0.92449
C         58.82695        54.94431        -0.04212
C         60.14972        57.01988        -0.61070
C         58.84786        56.26895        -0.36541
C         59.99144        58.31590        -1.39763
C         58.79800        59.08226        -1.26299
C         59.78398        60.90150        -2.55480
C         58.67576        60.40026        -1.81277
C         61.04417        58.85582        -2.12173
C         60.92503        60.13740        -2.71158
O         52.60230        49.68750         2.91315
O         40.33441        43.70065         2.35675
O         48.54966        41.13068         2.01332
O         55.81379        54.14214        -1.59956
O         41.88044        41.12483         1.79358
O         37.58057        49.05453         2.69624
O         51.80125        58.95798         1.33389
O         48.53008        43.65787         2.88150
O         49.45229        50.66662         2.81292
O         41.46985        56.17194         2.52105
O         49.49178        58.88820        -1.54936
O         44.27513        56.33515        -0.54291
O         38.34783        46.19006        -0.22788
O         45.19556        40.08347         1.39051
O         42.48487        49.54613         3.42237
O         36.01058        56.04480         2.06299
O         52.59194        51.99173        -1.49027
O         36.08011        51.62810         2.55965
O         39.05464        59.53281        -1.89031
O         46.05559        45.88400         3.35310
O         49.00733        51.94746        -0.57570
O         40.21886        53.84825         0.14009
O         44.80732        55.02340         2.70678
O         42.50599        44.59411         3.12421
O         50.39163        54.24188        -1.52995
O         55.71915        58.94578         0.70263
O         47.13002        59.10029         1.41992
O         56.88896        56.68574        -1.79743
O         43.85641        46.99135         3.65145
O         38.13214        57.58512         2.09584
O         47.53535        49.86894        -0.24965
H         46.65630        49.49187        -0.47992
O         38.70431        55.24895         3.17906
H         38.01009        55.92575         3.35820
O         61.10975        56.15936        -1.22388
H         60.74343        55.85640        -2.07998
O         54.15893        47.61970         3.44440
H         53.76889        48.38621         3.92486
O         40.10832        50.31991         3.47197
H         39.30268        49.87688         3.82028
O         51.94634        58.79300        -2.22372
H         51.24792        58.16896        -2.51130
O         45.83922        47.77329         0.24194
H         46.53453        47.36313        -0.31675
O         45.74465        48.74957         3.76956
H         45.36153        48.00392         4.29217
O         48.01709        53.18551         2.76307
H         47.25131        53.61929         3.19687
O         41.40679        50.29433         0.04126
H         41.86607        50.98443        -0.48219
H         29.50928        56.33884        -1.31606
H         28.32401        58.40349        -2.02869
H         30.51029        62.10519        -2.50324
H         28.38161        60.82013        -2.61905
H         31.91442        52.22805        -0.14085
H         30.71552        54.27962        -0.68178
H         32.95273        62.17709        -2.05407
H         34.31394        48.05029         0.58603
H         33.14174        50.13562         0.22599
H         35.37331        62.22769        -1.64686
H         36.73184        43.48739         0.86825
H         35.28837        45.98104         1.12145
H         37.64561        62.41772        -0.87450
H         39.42887        40.04203        -1.21072
H         38.09199        41.81634        -0.29136
H         40.46127        62.45642        -1.03994
H         41.96963        36.65409        -3.55153
H         40.69072        38.31196        -2.25590
H         42.73133        62.30246        -1.11339
H         45.44358        34.04352        -5.57163
H         43.25827        35.00892        -4.87126
H         45.17239        62.38507        -0.92094
H         47.57770        34.96163        -4.67714
H         48.77846        36.58395        -3.24871
H         47.64812        62.49679        -0.45709
H         49.96941        38.23919        -1.87221
H         51.15334        40.00619        -0.82057
H         50.14152        62.48490        -0.50118
H         52.37717        41.96700        -0.09782
H         53.59612        44.01310         0.44056
H         52.62783        62.32237        -0.87469
H         54.82926        46.04238         1.06305
H         56.12829        48.16461         1.69868
H         54.98333        62.29002        -1.01074
H         57.32353        50.22359         1.13543
H         58.51614        52.34011         0.73364
H         57.32914        62.06220        -2.24706
H         59.78376        54.41179         0.07864
H         60.57758        57.30223         0.39519
H         59.72455        61.90532        -2.99977
H         61.98045        58.28944        -2.22679
H         61.77183        60.53821        -3.28662
