         276
 CSIRO Nanostructure Databank - Neutral Graphene Oxide Data Set
C        -11.21883         0.78345         0.32648
C         -9.99309         1.54606         0.51671
C         -8.75837         0.73913         0.61670
C         -7.43993         1.43413         0.48621
C         -6.31007         0.67249        -0.13648
C         -5.09464         1.42214        -0.60480
C         -3.76739         0.68068        -0.68052
C         -2.60276         1.48982        -0.05863
C         -1.33225         0.73118         0.20635
C         -0.06714         1.41166        -0.25050
C          1.23804         0.68417        -0.01475
C          2.44771         1.56688        -0.13465
C          3.78191         0.78119        -0.14598
C          5.07816         1.47643         0.10738
C          6.42822         0.76796        -0.08727
C          7.50988         1.31969         0.83922
C          8.83820         0.55871         0.57356
C         10.06278         1.38055         0.90918
C         11.23490         0.58327         1.24535
C         -9.91533         2.90608         0.56974
C         -8.64524         3.67415         0.92811
C         -7.35393         2.93624         0.52637
C         -6.16640         3.66234        -0.02743
C         -5.05995         2.95418        -0.80982
C         -3.72896         3.63459        -0.57404
C         -2.57575         2.95876        -0.34220
C         -1.23408         3.69892        -0.45938
C         -0.08441         2.88430         0.12935
C          1.13203         3.55310         0.70233
C          2.42946         2.71499         0.88736
C          3.75275         3.56157         0.80324
C          5.07313         2.85381         0.69899
C          6.37353         3.60926         0.62126
C          7.63934         2.83805         0.64895
C          8.88341         3.41280        -0.00501
C         10.08322         2.72559         0.65585
C         -8.71259         5.10900         0.35330
C         -7.38872         5.80520         0.09756
C         -6.25562         5.13645        -0.21855
C         -5.12811         5.84985        -0.94927
C         -3.71210         5.11446        -1.00586
C         -2.60701         5.83721        -0.12341
C         -1.35431         5.07088         0.23154
C         -0.11649         5.86286         0.73099
C          1.21165         5.06100         0.71292
C          2.51084         5.73683         0.38838
C          3.74603         4.90159         0.05811
C          5.03171         5.74215         0.19365
C          6.35938         5.06582         0.32020
C          7.65179         5.67022        -0.10197
C          8.80297         4.94490        -0.08185
C         -7.47635         7.31079        -0.04033
C         -6.12705         7.98712        -0.13609
C         -5.00974         7.29320        -0.48866
C         -3.71245         8.00330        -0.78777
C         -2.51084         7.27704        -0.25320
C         -1.17762         7.91922        -0.52109
C          0.02444         7.24222         0.09492
C          1.21144         7.88428        -0.02797
C          2.47771         7.10132        -0.26672
C          3.76022         7.97301         0.01399
C          5.03773         7.07587        -0.51887
C          6.31815         7.92160        -0.25133
C          7.60807         7.11271        -0.61328
C         -6.06579         9.41993         0.08744
C         -4.90518        10.11901        -0.05445
C         -3.66386         9.45979        -0.38569
C         -2.45597        10.10429        -0.29629
C         -1.17600         9.42515        -0.37070
C          0.00942        10.08982        -0.31337
C          1.32971         9.39877        -0.08137
C          2.50253         9.87281        -0.93088
C          3.70515         9.24964        -0.81274
C          4.96937         9.76054        -1.34066
C          6.16764         9.18270        -1.09469
C        -11.23128        -0.58122         0.29012
C        -10.01852        -1.38152         0.39153
C         -8.82170        -0.72757         0.41112
C         -7.54786        -1.42833         0.71270
C         -6.29226        -0.86184         0.05290
C         -4.95846        -1.39047         0.55845
C         -3.75020        -0.68260         0.02192
C         -2.49212        -1.45179        -0.28408
C         -1.20497        -0.65100        -0.39966
C          0.06041        -1.43472        -0.10070
C          1.29752        -0.67163        -0.16394
C          2.59311        -1.39362        -0.50625
C          3.80360        -0.71464         0.15824
C          5.15797        -1.39061        -0.10345
C          6.34338        -0.73873         0.01136
C          7.70137        -1.43033         0.03066
C          8.72920        -0.89394         1.09256
C         10.06462        -1.59107         0.88752
C         11.24373        -0.77959         1.16241
C        -10.12292        -2.88969         0.59789
C         -8.79891        -3.65100         0.51333
C         -7.56505        -2.91536         0.88525
C         -6.23687        -3.64887         0.92104
C         -4.93755        -2.87692         0.85692
C         -3.63231        -3.60947         0.67566
C         -2.44267        -2.88682         0.10560
C         -1.13504        -3.56844         0.44348
C          0.09647        -2.80294         0.01008
C          1.36498        -3.52948        -0.00303
C          2.54723        -2.87041        -0.19344
C          3.84298        -3.59841        -0.16751
C          5.15296        -2.88462        -0.14392
C          6.43742        -3.54707        -0.69866
C          7.61289        -2.94326         0.05747
C          8.87703        -3.70618         0.30186
C         10.11422        -2.90764         0.54088
C         -8.73785        -4.93363         0.08160
C         -7.43125        -5.63933        -0.24229
C         -6.24487        -5.11127         0.56407
C         -4.95176        -5.83418         0.32491
C         -3.63256        -5.13039         0.45439
C         -2.43568        -5.72731        -0.12978
C         -1.14864        -4.95225        -0.24109
C          0.06586        -5.76896         0.18870
C          1.36015        -5.01608         0.19996
C          2.55613        -5.78659        -0.26456
C          3.80386        -5.03603        -0.58204
C          5.10236        -5.78889        -0.63931
C          6.41731        -5.08405        -0.63591
C          7.63491        -5.85201        -0.21260
C          8.96619        -5.11234        -0.28910
C         -7.44865        -7.16146        -0.20461
C         -6.28496        -7.85990        -0.36991
C         -5.01396        -7.09059        -0.50128
C         -3.74183        -7.79941        -0.85818
C         -2.44786        -7.07131        -0.68924
C         -1.16613        -7.88196        -0.66339
C          0.03593        -7.26431        -0.02788
C          1.31251        -8.03322        -0.13219
C          2.58348        -7.27668        -0.18284
C          3.75494        -7.93670        -0.33679
C          5.02752        -7.19099        -0.12690
C          6.27857        -7.92509         0.18806
C          7.56758        -7.18198         0.05052
C         -6.18136        -9.29710        -0.54629
C         -4.99994        -9.94367        -0.79163
C         -3.71138        -9.28228        -0.86960
C         -2.51816        -9.98250        -0.82996
C         -1.20823        -9.36843        -0.73136
C         -0.01702       -10.07291        -0.72146
C          1.29754        -9.44601        -0.60002
C          2.49462       -10.10110        -0.71763
C          3.83622        -9.38353        -0.75610
C          5.02918       -10.06777        -0.10652
C          6.16199        -9.41394         0.21562
O         -7.87959         0.97750         1.79973
O          0.73209        -5.44227         1.44651
O          5.69176         5.76285         1.45965
O          4.49581         3.23672         1.99936
O         -7.60645        -2.00064         2.03819
O         -0.92766        -0.19174        -1.80862
O          3.88274         8.21979         1.34215
O         -5.52033        -3.28560         2.12409
O          2.87847        -5.34417        -1.65891
O          4.49296         1.34217        -1.26570
O         -6.21027         3.29745         1.38668
O          7.20908         3.49719         1.86231
O         -4.54346        -7.08793        -1.87806
O          0.54956        -7.95781         1.13805
O         -2.15552         1.09638         1.30137
O          4.61298        -3.46205         1.09647
O         -1.56367        -7.22585        -1.90328
O         -4.13632        -0.58235         1.42815
O          2.10315         5.58791         1.75807
O         -5.70760        -6.00504         1.56764
O         -6.11185         0.94407        -1.55257
O          5.84168        -5.63165        -1.88906
O         -3.26717         5.17185        -2.33137
O          7.84987        -3.55847         1.34540
O         -3.36132        -4.50851         1.75877
O          9.04304         0.29175        -0.86613
O         -2.45226         5.17145         1.16801
O         -0.29302         1.17991        -1.71119
O          5.45509        -7.31350         1.27339
O          0.05278         3.06631         1.56526
O          8.39406        -1.02681        -1.19623
O         -2.64443        -2.50188        -1.28383
O         -5.61685         5.91781        -2.31822
H         -4.82812         5.71141        -2.89002
O         -0.94137         3.91236        -1.84353
H         -1.73305         4.37978        -2.25243
O          8.89319         3.04197        -1.40837
H          8.75248         2.06530        -1.49103
O         -0.93612        -4.64891        -1.64630
H         -1.15864        -5.45429        -2.17513
O          3.61611        -0.80396         1.58650
H          3.85124        -1.72007         1.86768
O          6.44426         8.27515         1.11455
H          5.53100         8.38455         1.51111
O         -3.47539         0.46616        -2.06924
H         -3.87444         1.19546        -2.59086
O          7.70989         7.07368        -2.03720
H          8.31106         6.34559        -2.29707
O          2.37130         2.08633         2.15845
H          2.40484         2.77123         2.85815
O          2.28804         2.23439        -1.41690
H          2.37541         1.56842        -2.13346
O          3.73110         4.53801        -1.34719
H          3.13608         3.75221        -1.50261
O          9.35062        -4.99950        -1.66864
H          8.67121        -4.47108        -2.14073
O         -0.38155         6.17221         2.11266
H         -0.45000         5.32750         2.60705
O         -5.28961         3.13251        -2.23124
H         -4.66398         3.82018        -2.57140
O         -7.11262        -5.25890        -1.61872
H         -7.78052        -5.65824        -2.21420
O          7.05956         1.08124         2.18090
H          6.93279         1.97188         2.60897
O          6.86558         1.11834        -1.41671
H          6.16801         0.83369        -2.04860
O          4.18744        -9.33541        -2.18251
H          3.49487        -8.82449        -2.65296
O         -9.38390         5.07774        -0.92415
H         -8.72074         4.91564        -1.62713
O         -8.23160         7.86175         1.04704
H         -7.79001         7.61584         1.88583
O          2.78092        -1.25373        -1.94050
H          2.00491        -1.64891        -2.39267
O         -0.96942         7.63149        -1.95522
H         -1.76103         7.98910        -2.43923
O          8.37543        -1.09398         2.43801
H          7.65611        -0.46801         2.69109
O          1.67288         9.75833         1.29479
H          2.49796         9.25226         1.54677
O         -1.07717        -3.61210         1.87211
H         -0.32929        -4.19549         2.14787
O          6.57389        -3.16328        -2.07678
H          6.10630        -3.84186        -2.61892
O        -11.08245        -3.45317        -0.29839
H        -10.80644        -3.25079        -1.21542
O         -3.51959         7.90616        -2.25071
H         -3.46973         6.92253        -2.46804
O          2.42117         6.83205        -1.68492
H          2.25285         7.67676        -2.15663
O          4.92948         6.89906        -1.90089
H          4.40553         6.08081        -2.09387
O         -6.38788        -1.47692        -1.26535
H         -6.10897        -0.79525        -1.92962
O         -8.63349         3.79607         2.36644
H         -8.32383         2.93606         2.73093
H         12.19764        -1.31070         1.30703
H         12.17244         1.11555         1.46618
H         11.01508         3.29171         0.81377
H          9.73554         5.44802        -0.39055
H          8.48527         7.68389        -0.19131
H          7.08152         9.65246        -1.48867
H          4.92595        10.68979        -1.93147
H          2.42292        10.83385        -1.46466
H          0.00661        11.18812        -0.22765
H         -2.44281        11.17742        -0.04793
H         -4.87947        11.20092         0.14280
H         -6.99403         9.93247         0.37647
H         -8.05243         7.54914        -0.97610
H         -9.34075         5.72870         1.03883
H        -10.83852         3.49872         0.48144
H        -12.16532         1.33922         0.25496
H        -12.18747        -1.11533         0.19199
H        -10.53249        -3.04031         1.63489
H         -9.67211        -5.42525        -0.23675
H         -8.41286        -7.69115        -0.15088
H         -7.10713        -9.88827        -0.48071
H         -5.00833       -11.03958        -0.89266
H         -2.56004       -11.08297        -0.81752
H         -0.04931       -11.16755        -0.83784
H          2.50010       -11.16674        -0.99798
H          4.99796       -11.16490        -0.02033
H          7.02348        -9.98232         0.60070
H          8.49558        -7.73148         0.27633
H          9.76016        -5.70646         0.22645
H         11.08353        -3.41249         0.40686
