         490
 CSIRO Nanostructure Databank - Neutral Graphene Oxide Data Set
C         37.56682        49.99732         0.64787
C         36.35785        50.66840         0.73556
C         37.52146        52.78462         0.68039
C         36.33505        52.07267         0.75239
C         40.12316        48.58853         0.39300
C         40.06459        50.00275         0.48603
C         38.79425        50.70059         0.57359
C         40.01778        52.86340         0.51032
C         38.77103        52.12354         0.58949
C         40.02938        54.28314         0.44230
C         42.55956        48.62588         0.31307
C         41.32695        47.92435         0.28934
C         42.53382        50.04103         0.44281
C         41.28208        50.73310         0.48899
C         42.48577        52.90839         0.43855
C         41.25570        52.17424         0.49434
C         42.46407        54.32972         0.31393
C         41.20594        54.98948         0.32880
C         45.12267        45.91181        -0.23054
C         43.89753        46.54476        -0.07575
C         45.03928        48.65702         0.35250
C         43.82308        47.92888         0.19756
C         44.98937        50.07338         0.54117
C         43.77031        50.77415         0.53699
C         44.93843        52.97645         0.50455
C         43.73724        52.22306         0.53283
C         44.92101        54.35587         0.19918
C         43.69660        55.05052         0.12153
C         44.89727        57.18111        -0.22025
C         43.72158        56.46975        -0.10565
C         47.72628        44.46339        -0.37531
C         47.68557        45.97117        -0.31699
C         46.33079        46.60924        -0.04175
C         47.55469        48.71298         0.47672
C         46.29409        47.97486         0.29763
C         47.54298        50.13436         0.61397
C         46.24403        50.79394         0.81294
C         47.49691        53.05817         0.77681
C         46.20582        52.30152         0.84804
C         47.45439        54.48696         0.35995
C         46.19261        55.04118        -0.25890
C         47.39613        57.24524        -0.28226
C         46.17007        56.55059        -0.20367
C         47.43795        58.67431        -0.44260
C         50.07954        44.47070         0.35240
C         48.86061        43.79262        -0.08725
C         50.04409        45.81303         0.58715
C         48.70169        46.51124         0.68784
C         50.06027        48.71488         0.36937
C         48.75420        48.01359         0.54269
C         50.00012        50.19789         0.60902
C         48.76611        50.88329         0.66066
C         49.96974        53.03881         0.46850
C         48.77857        52.32570         0.67701
C         49.96980        54.47565         0.19223
C         48.71947        55.17796         0.02253
C         49.93770        57.33367        -0.12424
C         48.65862        56.53805        -0.23675
C         49.87580        58.71286        -0.72493
C         48.60134        59.36202        -0.67608
C         52.38124        41.59149         1.28268
C         51.29120        42.28575         0.92174
C         52.50852        44.47736         1.05615
C         51.38676        43.70593         0.39722
C         52.51770        45.83964         1.16401
C         51.22687        46.55580         1.07742
C         52.50377        48.82976         1.33930
C         51.20308        48.04544         1.12434
C         52.47221        50.19731         0.67487
C         51.22760        50.90397         0.60456
C         52.45205        52.99320         0.22850
C         51.22333        52.32499         0.43841
C         52.50878        54.49789         0.15713
C         51.16902        55.15319        -0.07173
C         52.35747        57.17652        -0.84319
C         51.17851        56.53231        -0.44193
C         52.28729        58.56803        -1.43175
C         51.04658        59.36066        -1.09189
C         52.29359        61.44092        -1.41007
C         51.10110        60.77197        -1.31248
C         54.98916        40.12406         1.11766
C         54.98379        41.52273         1.17603
C         53.71400        42.24312         1.44006
C         55.02057        44.44101         1.16565
C         53.74515        43.73480         1.36321
C         54.98721        45.86345         1.19319
C         53.77403        46.58389         1.25749
C         54.96357        48.69973         0.81589
C         53.76984        48.01645         1.08756
C         54.93192        50.09298         0.20589
C         53.65749        50.87223         0.41018
C         54.90940        53.00966        -0.10830
C         53.65948        52.28006         0.16415
C         54.87832        54.30430        -0.56372
C         53.56043        54.96949        -0.85200
C         54.81353        57.18352        -1.12622
C         53.60993        56.48838        -0.90873
C         54.78047        58.62142        -1.29061
C         53.58468        59.33610        -1.29814
C         54.76142        61.51247        -1.19573
C         53.56090        60.77144        -1.34126
C         54.79521        62.87509        -0.86816
C         57.39019        40.10407         0.75003
C         56.17767        39.42287         0.93563
C         57.40802        41.52388         0.74319
C         56.19724        42.24843         0.98794
C         57.44780        44.41188         0.78111
C         56.20605        43.69845         1.01394
C         57.45146        45.82698         0.78193
C         56.29075        46.60329         1.34391
C         57.42333        48.71670         0.60948
C         56.22068        48.02762         0.83647
C         57.45041        50.18719         0.66050
C         56.14692        50.92501         0.55646
C         57.38979        52.99278        -0.00952
C         56.18452        52.33045         0.11058
C         57.34740        54.49255        -0.22882
C         56.14264        54.96156        -1.06778
C         57.29731        57.15492        -1.17528
C         56.09997        56.48640        -1.09616
C         57.33121        58.60981        -1.45461
C         56.04146        59.34610        -1.57098
C         57.17151        61.34340        -0.49111
C         56.10161        60.87315        -1.49674
C         57.22573        62.86212        -0.48304
C         56.00084        63.54026        -0.61108
C         59.93911        37.29406         1.10193
C         58.75862        37.92452         0.98421
C         59.93517        40.08991         0.31847
C         58.62844        39.31775         0.48427
C         59.88577        41.56012         0.38981
C         58.66052        42.24995         0.55286
C         59.95236        44.41513         0.69332
C         58.64640        43.67340         0.57991
C         59.90992        45.81548         0.13503
C         58.59201        46.56379         0.25660
C         59.85444        48.74262         0.22854
C         58.64847        48.03848         0.36760
C         59.88597        50.16735         0.26439
C         58.70016        50.90038         0.36233
C         59.87595        53.00517        -0.14609
C         58.66642        52.31565         0.12414
C         59.81968        54.39525        -0.55677
C         58.64019        55.05378        -0.74557
C         59.86255        57.21092        -1.17566
C         58.60073        56.40951        -1.40538
C         59.88005        58.69633        -1.47261
C         58.56974        59.38483        -1.17401
C         59.72651        61.41439        -0.38413
C         58.51700        60.68953        -0.76531
C         59.66568        62.76985        -0.05005
C         58.45010        63.52218        -0.21373
C         59.70774        65.63488        -0.01631
C         58.52925        64.95556        -0.19485
C         62.24856        35.78234        -0.05417
C         62.14579        37.26457        -0.24579
C         61.27724        37.94190         0.87989
C         62.48773        40.13702         0.48752
C         61.18806        39.40653         0.59182
C         62.32100        41.53584        -0.03245
C         61.13600        42.24604         0.15755
C         62.31539        44.41159        -0.03574
C         61.15612        43.68961         0.15469
C         62.36335        45.86315         0.10132
C         61.15510        46.57081         0.15090
C         62.38450        48.75893        -0.00881
C         61.09613        48.01738        -0.25204
C         62.41652        50.12945        -0.04560
C         61.19555        50.91226         0.37894
C         62.34404        52.94086        -0.50156
C         61.14670        52.32419        -0.13853
C         62.30365        54.34709        -0.96669
C         61.11734        55.15509        -0.48100
C         62.31145        57.28828        -1.00312
C         61.05539        56.56177        -1.02092
C         62.29985        58.64794        -0.75970
C         61.04920        59.37560        -0.79453
C         62.16507        61.29243         0.35661
C         60.96899        60.67346        -0.34184
C         62.16466        62.78194         0.24005
C         60.87076        63.47538         0.55579
C         62.12864        65.64971         0.50868
C         60.93180        64.96906         0.30003
C         62.25914        67.06863         0.35358
C         64.70987        35.80042        -0.13185
C         63.42495        35.12869        -0.00216
C         64.73134        37.18797        -0.45722
C         63.49742        37.95848        -0.34144
C         64.72202        40.05203        -0.77156
C         63.54271        39.33087        -0.26879
C         64.81120        41.52100        -0.58137
C         63.50762        42.21495        -0.54260
C         64.82415        44.41790        -0.40332
C         63.52264        43.74056        -0.52236
C         64.81778        45.82864        -0.21887
C         63.60661        46.53614        -0.01794
C         64.88644        48.70185        -0.22733
C         63.65382        48.00735         0.29249
C         64.87682        50.09974        -0.42302
C         63.65095        50.84229        -0.27404
C         64.83244        52.93365        -0.82152
C         63.61387        52.23969        -0.53477
C         64.84755        54.36296        -0.99854
C         63.57857        55.07911        -1.24206
C         64.82102        57.24274        -0.73794
C         63.60973        56.60266        -1.37236
C         64.77779        58.61022        -0.40037
C         63.53210        59.34200        -0.42406
C         64.68638        61.36735         0.33430
C         63.48402        60.66512        -0.01731
C         64.66606        62.75693         0.58290
C         63.44646        63.55428         0.17252
C         64.64869        65.61089         0.92650
C         63.33696        64.86475         0.96942
C         64.69145        66.99448         0.72403
C         63.46202        67.70866         0.46831
C         67.03918        33.14099         1.08640
C         65.93275        33.74675         0.61949
C         67.16394        35.79665        -0.01743
C         65.92341        35.12076         0.13092
C         67.19569        37.11825        -0.52020
C         65.98252        37.82993        -0.67825
C         67.27145        40.04177        -1.09919
C         65.98664        39.25814        -1.06064
C         67.27463        41.53016        -0.88687
C         65.98788        42.22849        -0.62564
C         67.27438        44.36025        -0.34712
C         66.02608        43.68051        -0.46530
C         67.27815        45.79815        -0.32016
C         66.06763        46.52870        -0.28741
C         67.30302        48.63889        -0.67266
C         66.08195        47.96385        -0.36555
C         67.29534        50.03958        -0.88315
C         66.08990        50.76610        -0.79561
C         67.27119        52.91604        -1.16199
C         66.08114        52.21188        -0.94051
C         67.30736        54.32703        -0.61245
C         66.02746        55.08390        -0.85209
C         67.23574        57.18926        -0.26098
C         66.03099        56.51524        -0.65390
C         67.18597        58.54875         0.14790
C         65.95308        59.26125         0.08378
C         67.07705        61.29770         0.92287
C         65.91025        60.64065         0.43740
C         67.01421        62.67529         1.24337
C         65.82748        63.41415         1.05663
C         67.03149        65.57021         1.47951
C         65.84175        64.87788         1.19423
C         67.13055        66.97572         1.19126
C         65.96416        67.66572         0.73018
C         67.31179        69.63697         0.26063
C         66.09025        69.00460         0.27945
C         69.41883        31.55962         0.45599
C         69.52943        32.93901         0.67290
C         68.37617        33.81878         1.16066
C         69.60592        35.75772         0.26768
C         68.40011        35.14662         0.40969
C         69.81048        36.99532        -0.57091
C         68.50746        37.77281        -0.82257
C         69.77050        40.02098        -0.53869
C         68.55196        39.27302        -0.94586
C         69.71778        41.45597        -0.36501
C         68.54400        42.19223        -0.48621
C         69.73675        44.32381        -0.15434
C         68.52477        43.63124        -0.30155
C         69.75037        45.81087         0.08635
C         68.51139        46.52347        -0.36469
C         69.79731        48.58430        -0.82028
C         68.53727        47.89422        -0.65529
C         69.86617        49.97232        -1.44626
C         68.46067        50.67138        -1.61121
C         69.83425        52.94931        -1.35439
C         68.51855        52.20180        -1.50069
C         69.82227        54.46184        -1.19877
C         68.52429        55.16449        -0.94723
C         69.68717        57.19649        -0.03531
C         68.51279        56.53575        -0.37016
C         69.63694        58.50704         0.58014
C         68.36791        59.21221         0.62300
C         69.50911        61.24090         1.46841
C         68.30042        60.54817         1.06622
C         69.49450        62.59913         1.66846
C         68.17603        63.28066         1.98830
C         69.50147        65.57559         2.14620
C         68.21464        64.82319         1.98025
C         69.55449        67.11060         2.00197
C         68.37488        67.68059         1.24551
C         69.77253        69.68140         0.72496
C         68.47829        68.99810         0.76551
C         69.87677        71.02205         0.30689
C         71.77961        31.43044        -0.07519
C         70.53798        30.81185         0.08047
C         71.90384        32.80521         0.13479
C         70.78464        33.55979         0.50909
C         72.07749        35.82782         0.84336
C         70.83316        35.03819         0.71159
C         72.03560        37.27046         0.51721
C         70.96268        37.86673        -0.07348
C         72.19145        40.05820        -0.17148
C         70.94475        39.31551        -0.27143
C         72.20886        41.40049        -0.05009
C         70.93519        42.14295         0.23849
C         72.16749        44.34261        -0.08445
C         70.98098        43.62735        -0.05007
C         72.19180        45.75390        -0.29326
C         71.03253        46.49600        -0.30467
C         72.21535        48.69636        -0.50104
C         71.00091        47.92478        -0.57148
C         72.18730        50.06121        -0.51442
C         70.99923        50.80588        -0.84471
C         72.19492        52.95821        -0.51881
C         71.02158        52.19237        -0.89228
C         72.25827        54.31164        -0.53404
C         71.10439        55.16721        -0.85695
C         72.13801        57.13150         0.51217
C         71.01871        56.57999        -0.26627
C         72.01276        58.32551         1.15081
C         70.79511        59.08432         1.10614
C         72.01371        61.22686         1.68864
C         70.74111        60.42609         1.80786
C         72.02075        62.56523         1.67799
C         70.76876        63.35449         1.64972
C         72.02538        65.57198         2.23314
C         70.78749        64.83213         1.90623
C         72.06100        66.91511         1.96845
C         70.90203        67.63878         1.56072
C         72.22724        69.61309         0.83577
C         70.97472        68.96715         1.04707
C         72.29465        70.92606         0.40390
C         71.11289        71.64412         0.15740
O         69.06777        55.08730        -2.28410
O         63.29915        43.00687        -1.76789
O         68.64135        38.40317        -2.14211
O         71.31748        35.46586         2.05406
O         70.78861        64.32840         0.50917
O         56.72758        50.70198         1.86375
O         69.30997        52.62905        -2.67494
O         67.34783        40.94712        -2.24135
O         68.71681        65.24453         3.33028
O         59.08448        46.02740        -1.05171
O         56.71723        58.86782        -2.80040
O         62.76171        54.50757        -2.34358
O         47.44864        54.15468         1.77941
O         71.38362        56.32585        -1.68265
O         61.33001        55.30636         0.91946
O         65.07923        39.60833        -2.13418
O         46.14765        51.54058         2.09728
O         53.71970        43.03581         2.68833
O         59.16222        39.51876        -0.84517
O         50.82872        47.31220         2.32726
O         62.00487        60.98260         1.79348
H         61.31678        61.60623         2.14100
O         48.12774        46.46524        -1.62433
H         47.47793        46.16970        -2.29639
O         70.25626        36.47659        -1.85739
H         69.97420        37.13843        -2.53357
O         68.05127        50.46794        -2.99767
H         68.12777        49.51041        -3.19586
O         52.56295        49.15285         2.76082
H         52.09373        48.42575         3.23430
O         69.41911        67.66296         3.35413
H         68.83811        67.03781         3.84981
O         63.65784        63.96881        -1.22064
H         63.79111        63.15952        -1.75809
O         58.58032        56.13624        -2.86412
H         58.78630        56.98911        -3.31359
O         55.04127        49.89045        -1.24075
H         54.21370        49.46934        -1.55587
O         63.08477        40.27256         1.83870
H         63.05195        39.36372         2.22990
O         48.20324        46.22588         2.02061
H         48.87599        46.57360         2.65018
O         63.76318        56.87852        -2.80336
H         63.21812        56.20556        -3.27383
O         51.83137        43.57888        -1.00199
H         51.09066        43.18950        -1.51324
O         63.75867        48.07203         1.77328
H         63.57036        48.99750         2.04347
O         61.41647        51.04095         1.83956
H         60.81756        51.74610         2.16877
O         63.12104        64.47897         2.36879
H         63.25141        65.27648         2.92407
O         68.62183        34.08981         2.56934
H         69.50645        34.51188         2.64941
O         67.42826        54.14184         0.85202
H         66.57898        53.77379         1.17913
O         57.15678        55.09757         1.08805
H         57.96481        54.92793         1.61810
O         52.15499        58.33992        -2.88814
H         52.94352        57.83231        -3.17810
O         61.43208        37.51596        -1.47425
H         62.00287        37.25585        -2.22649
O         67.90683        62.87641         3.37270
H         68.34694        63.53935         3.95494
O         70.35015        49.73032        -2.80356
H         70.23520        50.57815        -3.29273
O         70.59797        60.11847         3.24041
H         69.68720        59.78217         3.38070
O         50.40690        48.52947        -1.06381
H         49.69595        47.98568        -1.47860
O         62.05571        37.73888         2.10866
H         61.45934        37.89236         2.87168
O         56.28858        54.52720        -2.44744
H         57.06876        55.00765        -2.82906
O         60.18320        44.60127         2.13175
H         60.24455        43.71534         2.54689
O         60.67812        63.32740         2.02676
H         61.48087        63.74922         2.43930
O         70.74381        42.06118         1.70337
H         70.80759        41.11411         1.95126
O         53.16165        54.53032        -2.18130
H         53.97697        54.48688        -2.72971
O         50.05230        57.61254         1.32776
H         49.95368        56.75755         1.79980
O         56.74099        60.90818         0.82542
H         57.39147        61.23352         1.48259
O         69.70530        45.93245         1.57353
H         70.39856        45.33307         1.92699
O         56.53053        46.71873         2.79810
H         55.82725        47.29581         3.16593
O         52.97249        54.97161         1.45600
H         52.40339        54.57646         2.14887
O         60.95569        47.99003        -1.72064
H         60.22726        47.34926        -1.91764
O         60.06188        58.80900        -2.93377
H         60.07555        59.76412        -3.15744
O         46.31437        54.68619        -1.68494
H         45.58332        55.13294        -2.16245
O         56.49060        61.38537        -2.79183
H         56.71722        60.60128        -3.34951
H         37.55773        48.89937         0.64466
H         35.41793        50.10250         0.79567
H         37.47662        53.88143         0.70254
H         35.37724        52.60608         0.82573
H         39.19866        47.99680         0.38423
H         39.08498        54.84252         0.45590
H         41.31796        46.82957         0.20626
H         41.15710        56.08396         0.25780
H         45.13558        44.84356        -0.48711
H         42.98171        45.95387        -0.20788
H         44.83238        58.27458        -0.30919
H         42.77584        57.02613        -0.13945
H         46.85651        43.90929        -0.75900
H         46.49422        59.23633        -0.45022
H         48.88496        42.69898        -0.20879
H         48.53054        60.43565        -0.89999
H         52.27442        40.53996         1.59234
H         50.31589        41.77608         0.89615
H         52.27656        62.53366        -1.52019
H         50.17324        61.36039        -1.30085
H         54.05244        39.56432         1.24112
H         53.86093        63.44768        -0.77768
H         56.14855        38.32565         0.90976
H         55.95540        64.62606        -0.44672
H         59.95434        36.26016         1.48128
H         57.84184        37.38346         1.26320
H         59.69441        66.73081        -0.09475
H         57.62225        65.54170        -0.39297
H         61.30757        35.21486        -0.00050
H         61.36784        67.66778         0.12095
H         63.41000        34.03701         0.12003
H         63.48964        68.79929         0.34684
H         66.95670        32.12952         1.51039
H         64.98570        33.19066         0.64401
H         67.36757        70.65655        -0.14119
H         65.21238        69.53918        -0.10586
H         68.45116        31.05282         0.57466
H         68.97326        71.60705         0.09012
H         72.65756        30.83919        -0.36957
H         70.43799        29.73102        -0.09073
H         72.87951        33.29465         0.00262
H         73.06831        35.33005         0.78793
H         72.90604        37.86991         0.82463
H         73.13768        39.51115        -0.28972
H         73.17214        41.92761        -0.02900
H         73.13444        43.82812        -0.00888
H         73.16727        46.22631        -0.47434
H         73.16430        48.18840        -0.28309
H         73.11953        50.59635        -0.29289
H         73.10876        52.41607        -0.24403
H         73.21686        54.79897        -0.30951
H         73.10436        56.60989         0.51389
H         72.87173        58.72528         1.70677
H         72.97255        60.68900         1.67403
H         72.97059        63.11331         1.59256
H         72.93466        65.03370         2.53309
H         73.02515        67.43825         2.05053
H         73.16209        69.07303         1.03613
H         73.27111        71.40983         0.26346
H         71.16304        72.69213        -0.16830
