         576
 CSIRO Nanostructure Databank - Neutral Graphene Oxide Data Set
C          6.18415        18.70405        -0.41185
C          6.32479        19.95588        -1.23986
C          5.03241        20.66600        -1.54076
C          6.17742        22.83457        -1.59441
C          4.99533        21.99950        -1.75089
C          6.19636        24.15218        -2.01405
C          8.26843        14.87910         1.75556
C          8.29336        16.26369         1.52383
C          7.24767        16.84398         0.79392
C          8.59796        18.78153        -0.06325
C          7.31908        18.09056         0.08122
C          8.53176        20.28366         0.09862
C          7.36084        20.88871        -0.66153
C          8.51017        23.08513        -0.64784
C          7.33233        22.22462        -0.94955
C          8.55479        24.47350        -1.20692
C          7.36179        24.98582        -1.93188
C          8.63563        27.01470        -2.51323
C          7.40997        26.26163        -2.46450
C          8.65512        28.38237        -2.67188
C         10.53439        10.67487         1.21789
C         10.59796        11.97638         1.79592
C          9.41145        12.77409         1.92565
C         10.73343        14.87271         2.25580
C          9.45354        14.16901         2.07186
C         10.81669        16.24520         2.06166
C          9.50083        16.98535         2.05700
C         11.04124        18.88864         0.33448
C          9.84551        18.16958        -0.07492
C         11.05882        20.26541         0.13975
C          9.82360        20.88667        -0.47209
C         11.10381        23.04093        -0.73882
C          9.81462        22.39834        -0.40090
C         11.16312        24.32059        -1.35941
C          9.89325        25.08555        -1.51091
C         11.17050        27.03876        -2.28150
C          9.92778        26.21899        -2.50789
C         11.12133        28.40371        -2.44787
C          9.88271        29.13351        -2.63602
C         11.04746        31.32350        -2.46651
C          9.87257        30.53205        -2.62635
C         11.01720        32.68825        -2.19130
C         13.00055         6.82203        -0.94162
C         12.99857         8.24940        -0.45183
C         11.71457         8.77999         0.13229
C         12.99717        10.47631         1.39601
C         11.70750         9.94912         0.88138
C         13.06837        11.83889         2.02901
C         11.82021        12.59306         2.11798
C         13.16531        14.48255         3.01077
C         11.79713        13.92188         2.81331
C         13.19370        16.71473         2.63412
C         12.05440        17.05717         1.94727
C         13.43255        19.06935         1.10749
C         12.26155        18.12680         0.82589
C         13.47277        20.41866         0.65403
C         12.24693        21.04671         0.19857
C         13.57592        22.92639        -0.72011
C         12.26355        22.36139        -0.34788
C         13.65585        24.15660        -1.59394
C         12.38103        24.89746        -1.76476
C         13.62840        27.00530        -1.94891
C         12.42375        26.31864        -2.06142
C         13.59151        28.48006        -1.89857
C         12.38917        29.15156        -2.47357
C         13.58377        31.39709        -2.17230
C         12.36041        30.64809        -2.52039
C         13.48330        32.79765        -2.08191
C         12.21240        33.44435        -1.98460
C         13.26774        35.48507        -1.07412
C         12.13974        34.77826        -1.47355
C         13.20695        36.64969        -0.23316
C         15.41170         6.51884        -0.44585
C         14.13310         6.11738        -1.09519
C         15.43062         7.78360         0.35653
C         14.22383         8.63841         0.34808
C         15.53130        10.61129         1.08118
C         14.25919         9.86964         0.92863
C         15.57473        11.92731         1.73887
C         14.37275        12.53254         2.11850
C         15.65652        14.41413         3.01645
C         14.38442        13.83250         2.72905
C         15.65196        16.75338         3.02682
C         14.49912        17.30291         2.46887
C         15.76088        19.34171         1.85245
C         14.57954        18.56717         1.75965
C         15.85083        20.62696         1.25773
C         14.67799        21.17243         0.68991
C         16.00040        23.23503        -0.07031
C         14.66598        22.63316         0.28172
C         16.09221        24.41020        -0.77547
C         15.05663        24.81263        -1.81953
C         16.15894        27.17200        -1.56516
C         14.98211        26.36519        -2.11255
C         16.14258        28.56694        -1.64982
C         14.84933        29.27883        -1.75994
C         16.04510        31.45210        -1.94307
C         14.82484        30.73457        -2.03559
C         16.02134        32.90175        -1.92669
C         14.71720        33.57243        -2.03138
C         15.79891        35.56886        -0.85615
C         14.60193        35.02713        -1.48287
C         15.66109        36.68517         0.01142
C         14.34138        37.21912         0.27555
C         17.90807         6.56650        -0.51799
C         16.70882         6.00522        -0.90601
C         17.98953         7.74066         0.35335
C         16.73038         8.35544         0.92585
C         18.06499        10.47192         1.37962
C         16.82105         9.86733         0.88986
C         18.08152        11.83189         1.75362
C         16.84158        12.55452         1.94863
C         18.16322        14.47629         2.80207
C         16.89066        13.83418         2.60883
C         18.10475        16.84596         3.43682
C         16.90764        17.40936         2.99074
C         18.26263        19.50050         2.42239
C         16.90120        18.82503         2.61018
C         18.30436        20.69579         1.57162
C         17.12526        21.31539         1.16946
C         18.47950        23.23033         0.22198
C         17.15895        22.77689         0.77965
C         18.55751        24.50656        -0.34693
C         17.35236        25.14573        -0.80312
C         18.59918        27.26219        -1.09213
C         17.37682        26.50329        -1.20078
C         18.59668        28.66537        -1.35661
C         17.34178        29.34684        -1.59378
C         18.52430        31.51834        -1.98401
C         17.27402        30.75464        -1.78403
C         18.51442        33.06526        -2.05069
C         17.16427        33.66512        -1.70885
C         18.23521        35.64168        -0.63223
C         17.07538        34.99541        -1.13408
C         18.10106        36.73901         0.27356
C         16.80858        37.23657         0.59157
C         20.36501         6.53634        -0.64634
C         19.14172         6.02932        -1.02444
C         20.44803         7.61355         0.37848
C         19.18442         8.28233         0.74520
C         20.58198        10.23708         1.78685
C         19.25169         9.59079         1.46829
C         20.58417        11.72861         2.06299
C         19.32718        12.50799         1.99644
C         20.66734        14.62499         2.18756
C         19.37847        13.89336         2.31244
C         20.67838        16.07760         1.80120
C         19.32922        17.56389         3.46026
C         20.72333        19.15252         2.11356
C         19.47008        18.71142         2.65825
C         20.77284        20.53005         1.63869
C         19.60850        21.22340         1.29846
C         21.01217        23.20784         0.43938
C         19.68078        22.46534         0.49905
C         20.99849        24.63367         0.10058
C         19.82087        25.22494        -0.38374
C         21.03786        27.35721        -0.64685
C         19.81618        26.62098        -0.71975
C         21.04621        28.74298        -1.00294
C         19.81927        29.38071        -1.31758
C         21.03970        31.59870        -1.53900
C         19.81062        30.80165        -1.70466
C         21.00146        32.97693        -1.57613
C         19.66508        33.65784        -1.19735
C         20.73720        35.83362        -0.34889
C         19.59822        35.23058        -1.16695
C         20.54502        36.82923         0.70793
C         19.23138        37.30850         0.92579
C         22.81033         6.52234        -0.83368
C         21.58080         5.92264        -1.06523
C         22.83447         7.96335        -0.36774
C         21.77728         8.24194         0.69172
C         23.10298        10.40268         1.14415
C         21.94208         9.51075         1.56726
C         23.16552        11.76502         1.73269
C         21.89174        12.48564         2.09218
C         23.19128        14.71671         2.27772
C         21.86823        13.97068         2.03411
C         23.15464        16.22402         2.04010
C         21.92608        16.89852         1.97821
C         23.18365        19.06887         2.26173
C         21.87902        18.34359         2.00233
C         23.19314        20.54817         1.92191
C         22.06050        21.20458         1.56110
C         23.37443        23.39506         1.30209
C         22.02106        22.72511         1.47634
C         23.39364        24.76988         0.78964
C         22.22226        25.36903         0.23194
C         23.48271        27.44858        -0.22173
C         22.24835        26.72652        -0.21597
C         23.49374        28.83323        -0.65830
C         22.30159        29.45247        -1.05024
C         23.57665        31.69463        -1.33026
C         22.30947        30.86096        -1.52423
C         23.47792        33.17362        -1.25788
C         22.24631        33.69066        -1.65266
C         23.24020        36.12615        -0.18028
C         22.00095        35.67506        -0.82076
C         23.00604        36.71307         1.21756
C         21.65886        37.36466         1.35455
C         25.23781         6.52370        -1.12930
C         24.00547         5.86749        -1.19432
C         25.30772         7.85572        -0.53713
C         24.20190         8.49975        -0.03818
C         25.50789        10.53185         0.54293
C         24.26672         9.83558         0.56650
C         25.65044        11.88202         1.07707
C         24.40942        12.58322         1.55234
C         25.56471        14.76219         1.41643
C         24.40679        14.07105         1.62895
C         25.70161        16.11651         2.12214
C         24.41808        16.93545         1.91559
C         25.68509        19.09828         1.83313
C         24.41748        18.30919         1.82025
C         25.57441        20.53474         1.30435
C         24.49427        21.29051         2.16654
C         25.76444        23.51626         2.11988
C         24.47571        22.76771         1.80611
C         25.65359        25.07033         1.82143
C         24.60521        25.50495         0.80340
C         26.00121        27.48702         0.08097
C         24.65668        26.80940         0.25184
C         25.91803        28.99956        -0.07487
C         24.72655        29.61057        -0.52944
C         25.87902        31.80457        -0.56149
C         24.73011        31.01319        -0.74549
C         25.84260        33.23956        -0.79961
C         24.64229        33.97984        -0.93365
C         25.66911        35.95306         0.48571
C         24.56571        35.42682        -0.42051
C         25.46472        36.98742         1.51807
C         24.17144        37.47179         1.75600
C         27.59211         6.60546        -1.84570
C         26.41430         5.88869        -1.60878
C         27.50301         8.11212        -1.74305
C         26.61883         8.53483        -0.58759
C         27.67378        10.90166        -0.80672
C         26.69424         9.94748        -0.11294
C         28.12844        12.00516         0.18135
C         26.92978        12.68086         0.86347
C         27.84904        15.01156         0.25049
C         26.62772        14.13353         0.51719
C         27.99734        16.40707         0.79280
C         27.10355        16.85052         1.95371
C         28.31062        19.17606         1.87104
C         26.98916        18.38434         1.98063
C         28.15827        20.45103         0.98680
C         26.89898        21.31477         1.20302
C         28.33217        23.42390         1.77951
C         26.96391        22.79605         1.48460
C         28.34962        24.94457         1.59212
C         27.04945        25.70841         1.63293
C         28.34378        27.72135         0.85098
C         26.99069        27.16672         1.22424
C         28.30999        29.16906         0.65937
C         27.06313        29.79010         0.16108
C         28.33358        31.91265        -0.15663
C         27.07969        31.17695        -0.13433
C         28.31496        33.32570        -0.44234
C         27.12458        33.87613        -0.83378
C         28.13406        36.02949         0.87118
C         26.95977        35.81026         0.05776
C         27.95221        36.91694         2.08738
C         26.60107        37.58283         2.11139
C         29.93554         6.75698        -2.57433
C         28.75946         6.00605        -2.33331
C         29.98570         8.14204        -2.26870
C         28.83031         8.82643        -1.72801
C         30.05420        10.97152        -1.77502
C         28.87803        10.14436        -1.34309
C         30.23281        12.31327        -1.10044
C         29.08423        12.97099        -0.49780
C         30.24783        15.15670        -0.57202
C         29.04994        14.33001        -0.29533
C         30.42495        16.44619         0.14446
C         29.35460        17.05962         0.76892
C         30.67448        19.10565         1.05621
C         29.49622        18.41354         1.26755
C         30.74825        20.56615         1.42853
C         29.46578        21.26901         0.99230
C         30.79973        23.45996         1.11544
C         29.49266        22.75280         1.08213
C         30.78260        24.86977         0.94704
C         29.57170        25.60295         1.07329
C         30.78620        27.69347         0.40540
C         29.54756        27.01562         0.80784
C         30.83011        29.06766         0.16682
C         29.62484        29.88199         0.36675
C         30.78980        31.98982        -0.42935
C         29.54254        31.24623        -0.15747
C         30.78774        33.40787        -0.00689
C         29.54343        34.22501        -0.30128
C         30.45809        35.80683         1.56147
C         29.30920        35.34275         0.72768
C         30.40313        37.22091         2.04108
C         29.18029        37.79037         2.25312
C         32.29904         6.77016        -3.23475
C         31.11778         6.10264        -3.07821
C         32.42399         8.15854        -2.87845
C         31.23513         8.84411        -2.38367
C         32.62347        10.81575        -1.95047
C         31.31193        10.16870        -1.98303
C         32.67028        12.27874        -1.60175
C         31.41042        12.98601        -1.27155
C         32.86483        14.94704        -0.64675
C         31.49404        14.42996        -1.02110
C         32.86410        16.42527        -0.38774
C         31.74103        17.08034         0.06733
C         33.07626        19.12497         0.47251
C         31.85962        18.47450         0.50439
C         33.25349        20.49245         1.08138
C         31.98780        21.29767         0.99283
C         33.29773        23.37952         0.89297
C         31.99713        22.67572         0.99082
C         33.26898        24.83735         0.58461
C         31.98981        25.57590         0.55310
C         33.24783        27.57883        -0.31210
C         31.99696        26.92438         0.26681
C         33.25801        29.08059        -0.23569
C         32.06624        29.75153        -0.16582
C         33.26640        31.95231         0.11081
C         32.07045        31.22708        -0.35071
C         33.18267        33.23700         0.58729
C         31.90153        33.93385         0.58026
C         33.04444        35.91612         1.67377
C         31.80021        35.17022         1.38516
C         32.88889        37.27274         2.14531
C         31.67086        37.87884         2.30171
C         33.61826         8.84613        -3.06718
C         34.93578        10.93879        -2.85396
C         33.76603        10.21182        -2.67491
C         35.04572        12.33876        -2.53437
C         33.81400        13.05942        -2.14280
C         35.23819        15.09216        -1.61357
C         33.91505        14.50985        -1.66800
C         35.42430        16.25957        -0.68086
C         34.15611        17.16664        -0.65472
C         35.56615        19.15584        -0.15926
C         34.36153        18.34634         0.29786
C         35.60386        20.51278         0.01097
C         34.44757        21.22544         0.52751
C         35.74644        23.21843         0.00364
C         34.48621        22.58600         0.52123
C         35.76032        24.72645        -0.06721
C         34.49594        25.48953         0.05626
C         35.74476        27.62296         0.16999
C         34.53763        26.96566         0.17831
C         35.86261        29.03290        -0.36504
C         34.54663        29.80465        -0.39488
C         35.76492        31.91775         0.50428
C         34.55873        31.27908        -0.06524
C         35.61736        33.26216         0.98884
C         34.39061        33.92809         1.03233
C         34.26469        35.28929         1.50631
C         36.23500        13.03907        -2.60718
C         37.60683        15.05998        -2.17507
C         36.36398        14.41561        -2.16375
C         37.67609        16.55170        -2.02132
C         36.61239        17.10782        -1.08800
C         37.85416        19.21278        -1.25478
C         36.66168        18.44017        -0.79659
C         37.89216        20.69659        -1.11160
C         36.72546        21.41400        -0.46297
C         38.21539        23.37767         0.08870
C         37.02382        22.54852         0.53121
C         38.24528        24.73287         0.22295
C         36.96286        25.43010         0.57154
C         38.20976        27.60048         0.31686
C         36.98797        26.91445         0.32633
C         38.19225        29.04643         0.43325
C         37.02989        29.78166         0.26658
C         36.93929        31.17557         0.60026
C         39.03677        17.11669        -1.66783
C         40.39138        19.14425        -1.19265
C         39.13359        18.44477        -1.37252
C         40.47608        20.51259        -1.06536
C         39.25249        21.35410        -1.09026
C         40.69869        23.36071        -0.27533
C         39.38214        22.73644        -0.53755
C         40.71975        24.71447         0.00372
C         39.49412        25.48070         0.12609
C         39.45315        26.86219         0.27725
C         41.73516        21.19529        -0.84467
C         41.84744        22.51711        -0.49213
O         15.64358        15.56535         3.77554
O         35.09294        25.17946        -1.26980
O         13.03225        10.59502         2.86044
O         12.59228        29.83899        -3.74673
O         13.14378        15.71520         3.64720
O         18.24832        15.48506         3.77432
O         21.54013        23.19740         2.71429
O         26.28008        18.89721         3.16427
O         21.32365         7.13122         1.48914
O         31.51782        31.65303        -1.65906
O         29.04272        29.85911         1.72556
O          9.17968        25.43470        -0.29126
O         15.66100        24.21978        -2.94637
O         23.20530        31.14255        -2.64670
O         22.18589        35.02776        -2.04516
O         15.19316         6.48450         1.03161
O         27.87046        25.59104         2.82169
O         26.77874        22.33265         0.12612
O         13.72882        22.79667        -2.15477
O         25.17480        25.70880         2.98491
O         39.26203        22.49716        -2.00480
O         26.01601        13.82132        -0.75794
O         29.44377        22.08423        -0.22899
O         34.62708        30.79693        -1.47449
O         27.31935         8.84037         0.64684
O         27.43829        16.21459        -0.51926
O         13.97173        28.99338        -0.56670
O         19.82782         9.54093         2.83073
O         26.68492        12.12905         2.16403
O         27.14662        35.23123        -1.21242
O         37.58312        20.08836        -2.40802
O          9.05885        22.98586         0.71249
O         14.72784        34.73568        -2.90298
O         16.23626        10.57493        -0.24363
O         24.15865        36.61429        -1.20118
O         19.68638        16.52270         1.21767
O         17.44379        19.72465         3.62916
O         36.03692        22.48152        -1.29532
O         33.03646        11.29401        -0.59540
O          9.41967        18.06214         2.62894
O         19.29706        30.97040        -3.11222
O         33.53383        24.35077         1.96945
O         24.09208        11.97573         2.87877
O         30.96585        34.89301         2.59115
O         30.73029        15.23350        -1.96264
O         33.41980        14.15734        -3.00450
O         21.29556        11.98928         3.33223
O         20.63835        22.33306        -0.63553
O         20.39098        16.94531         4.02955
H         20.07537        16.12466         4.46816
O          9.98821        16.87022        -0.45745
H         10.95618        16.66413        -0.50568
O         16.72927         8.05835         2.34558
H         16.37462         7.14429         2.44407
O         25.04525        20.38838        -0.02378
H         25.35258        21.15821        -0.55404
O         22.36117         9.05574         2.86871
H         21.55016         8.75965         3.34438
O         19.40113        33.22075         0.15871
H         20.03093        33.67416         0.75925
O         36.22590        28.81738        -1.76338
H         36.01308        29.65699        -2.23470
O         27.93022        35.99979         3.24156
H         28.07436        36.53106         4.05255
O          8.38179        20.56290         1.49803
H          8.47196        21.53952         1.62376
O         13.15881         9.01208        -1.71854
H         13.26361         9.96047        -1.48893
O          9.81753        20.53203        -1.89096
H         10.62572        20.90620        -2.30421
O         14.23199        23.35877         1.48318
H         15.02129        23.43561         2.07313
O         27.93721        16.51122         3.07953
H         27.34519        16.44194         3.86595
O         23.33160        14.52303         3.72999
H         23.53498        13.55816         3.85532
O         36.72180        25.21296         2.01153
H         37.33240        25.79784         2.50888
O         29.63291        11.36588        -3.15015
H         28.69598        11.67777        -3.06866
O         25.98163        23.46538         3.55143
H         25.59487        24.34781         3.86342
O         18.74542        33.43144        -3.43116
H         19.19927        32.66098        -3.85723
O         33.53726        20.26623         2.51425
H         32.66437        20.34056         2.98781
O         30.90302        20.71130         2.88034
H         30.13174        20.28325         3.33691
O         34.02116        17.75492        -1.97057
H         33.71357        17.06819        -2.59980
O         26.60465        26.94490        -1.13019
H         25.99927        27.11921        -1.88176
O         23.26593        19.00128         3.73295
H         23.95911        19.65620         4.00924
O         15.14945        26.49718        -3.55199
H         15.47273        25.57996        -3.83787
O         22.91443        35.45303         2.02510
H         22.84575        35.71681         2.96801
O         28.92364        11.37257         1.20150
H         28.32958        11.18291         1.96642
O         25.67520        15.82194         3.54423
H         24.79785        15.42785         3.79464
O         22.38181         8.77867        -1.50713
H         23.04755         8.69352        -2.22324
O         26.79885         8.55507        -2.94481
H         27.42047         8.50066        -3.70059
O         35.64883        15.67211         0.63439
H         35.54419        16.39617         1.30493
O         11.32848        13.67530         4.19894
H         11.39681        14.52858         4.68119
O         37.34832        17.06405        -3.36144
H         37.32254        18.04657        -3.31294
O         16.98898        23.49783         2.07343
H         17.68827        23.18079         2.68729
O         24.85590        21.11882         3.55322
H         25.15610        21.99750         3.90887
O         33.22309        14.29592         0.60294
H         34.12146        14.62998         0.86298
O         28.62333        23.14751         3.16761
H         27.98060        23.67634         3.70262
O         29.81462        34.86679        -1.57447
H         28.96335        35.25343        -1.88809
O         19.68654        35.76954        -2.49598
H         19.27062        35.13122        -3.12710
O         34.65988        17.87069         1.64832
H         34.46013        18.62670         2.26188
O         37.10198        22.22343         1.91111
H         36.95217        23.05388         2.41774
O         28.64097        19.54975         3.21970
H         27.79944        19.54903         3.74164
O          6.88745        19.53711        -2.53962
H          7.86872        19.55481        -2.45741
O         26.54275        27.89062         2.38466
H         25.95664        27.24646         2.89151
O         28.01823        19.91170        -0.34189
H         28.07589        20.67057        -0.96563
O         33.19923        27.26880        -1.74420
H         34.08474        27.46119        -2.12561
O         12.67965        17.28523        -0.33162
H         13.02603        17.88569        -1.02739
O         27.01404        11.56393        -1.90658
H         26.61977        12.44151        -1.57767
O         10.05566        25.59761        -3.82164
H         10.24070        26.30260        -4.47740
H          5.19372        18.24635        -0.26635
H          4.12469        20.05851        -1.67511
H          4.05572        22.49042        -2.04676
H          5.30129        24.56818        -2.50145
H          7.37256        14.30247         1.47377
H          6.34044        16.23351         0.64408
H          6.48951        26.72081        -2.85775
H          7.70576        28.93658        -2.73088
H          9.55380        10.27352         0.92313
H          8.43837        12.30297         1.71905
H          8.90233        31.04976        -2.67276
H         10.04793        33.20095        -2.10095
H         12.05903         6.44217        -1.36705
H         10.76371         8.38362        -0.25653
H         11.14486        35.18536        -1.23698
H         12.21987        37.06304         0.02043
H         14.10774         5.12942        -1.58152
H         14.26490        38.10014         0.92918
H         16.71781         5.16513        -1.61675
H         16.71737        38.08390         1.28664
H         19.09742         5.18111        -1.72380
H         19.06857        38.12422         1.64544
H         21.53745         4.94805        -1.57481
H         21.52376        38.16645         2.09600
H         23.95451         4.84232        -1.59072
H         24.01214        38.30939         2.45133
H         26.37107         4.81700        -1.85766
H         26.44160        38.40042         2.83246
H         28.77815         4.91805        -2.50018
H         29.08882        38.82306         2.62482
H         33.18448         6.24576        -3.62238
H         31.04971         5.03463        -3.33167
H         33.80126        37.84028         2.38428
H         31.63545        38.91656         2.66727
H         34.47340         8.32825        -3.52709
H         35.81917        10.43536        -3.27542
H         36.51607        33.77814         1.36127
H         35.18777        35.83699         1.75386
H         37.14753        12.52215        -2.94006
H         38.49835        14.51843        -2.52745
H         39.12398        29.55359         0.73006
H         37.83197        31.65348         1.03478
H         39.93921        16.49775        -1.78844
H         41.31380        18.54313        -1.17855
H         41.68128        25.24056         0.10755
H         40.39461        27.43221         0.28250
H         42.65314        20.59768        -0.95400
H         42.84905        22.95187        -0.35535
