         298
 CSIRO Nanostructure Databank - Neutral Graphene Oxide Data Set
C         30.30986        31.62723        -0.75752
C         30.35484        32.82792        -0.46213
C         30.46577        35.92476         0.74362
C         30.49677        37.12308         1.17669
C         30.67675        40.22058         1.80075
C         30.64837        41.44179         1.98196
C         32.73923        28.68714        -0.63211
C         31.66919        29.30259        -0.77733
C         32.74070        31.45636        -0.36481
C         31.48804        30.74930        -0.88882
C         32.69469        32.88818         0.18178
C         31.46780        33.80943        -0.47893
C         32.77780        35.82262         0.38295
C         31.46693        35.10104         0.26482
C         32.79457        37.32222         0.32238
C         31.45750        38.10980         0.54121
C         32.83500        40.24704         0.77231
C         31.79046        39.30244         1.44607
C         32.79713        41.60400         0.84324
C         31.48219        42.42342         1.21734
C         32.89581        44.30662         1.31251
C         31.94774        43.70187         1.92883
C         35.44111        27.13962        -0.48376
C         35.23203        28.36939         0.33054
C         33.91534        29.13094         0.14518
C         35.20268        31.38429         0.54033
C         33.90236        30.65230         0.20631
C         35.22319        32.92989         0.62693
C         34.04831        33.56622        -0.17959
C         35.28206        35.82045        -0.27295
C         34.03738        35.06971         0.11532
C         35.22491        37.34767        -0.38557
C         33.95781        38.01351         0.14880
C         35.20113        40.26098        -0.29920
C         33.85036        39.51896        -0.12155
C         35.22115        41.73695        -0.03321
C         34.12171        42.36704         0.80649
C         35.05862        44.63428        -0.07472
C         34.01141        43.88635         0.61302
C         35.34114        46.06288         0.05080
C         37.71034        27.23345        -1.53048
C         36.41894        26.64248        -1.03180
C         37.63490        28.71082        -0.91839
C         36.43952        29.26744        -0.18778
C         37.83462        31.39268         0.56673
C         36.50987        30.63634         0.45792
C         37.80426        32.88554         0.77167
C         36.57804        33.50479         0.08171
C         37.74888        35.88315         0.37527
C         36.57092        35.06147        -0.08272
C         37.71796        37.36567         0.13328
C         36.54465        38.03443        -0.08474
C         37.80597        40.27605        -0.18077
C         36.52751        39.51077        -0.35185
C         37.79970        41.75460         0.09420
C         36.51621        42.49599         0.10673
C         37.71917        44.71275        -0.54549
C         36.43830        43.92837        -0.34738
C         37.73905        46.25274        -0.47077
C         36.38608        46.69816        -0.10018
C         40.02932        24.49642        -0.11760
C         39.13319        25.19047        -0.69731
C         40.11964        27.31688        -0.56721
C         38.93835        26.51690        -1.05427
C         40.22521        28.71469        -1.17420
C         38.93853        29.50607        -0.86076
C         40.42382        31.42316         0.13044
C         39.02885        30.83476        -0.16888
C         40.36440        32.96048         0.29591
C         39.09944        33.65731         0.69597
C         40.38271        35.87120         0.85388
C         39.01748        35.17255         0.74905
C         40.20718        37.44151         0.95538
C         39.08526        38.06030         0.06435
C         40.25967        40.36231         0.67738
C         39.00794        39.56525         0.37020
C         40.33610        41.79717         0.23133
C         39.07772        42.48004        -0.20181
C         40.31994        44.79730        -0.39303
C         39.03373        43.95977        -0.46166
C         40.22642        46.15979         0.33404
C         38.98206        46.96474        -0.11591
C         40.38773        48.99111        -0.21280
C         39.30373        48.27861        -0.15770
C         42.59652        24.55900         0.58562
C         41.44183        25.04957        -0.25585
C         42.54301        27.41682         0.54483
C         41.29774        26.61522         0.06133
C         42.69777        28.77205        -0.14098
C         41.55659        29.44401        -0.84222
C         42.85911        31.67483        -0.76273
C         41.47099        30.97753        -0.92742
C         42.73270        33.17835        -0.56277
C         41.41011        33.82238        -0.36887
C         42.59629        36.11727        -0.38088
C         41.34052        35.32205        -0.19390
C         42.62964        37.52432         0.09969
C         41.53692        38.15772         0.59415
C         42.84214        40.39420         0.72350
C         41.56825        39.60669         1.07632
C         42.81940        41.86358         0.43420
C         41.50100        42.49592         0.14768
C         42.82231        44.72669         0.11793
C         41.51691        43.98965         0.14645
C         42.73642        46.21273         0.27526
C         41.55496        46.92472         0.11891
C         42.85242        48.66024        -0.93221
C         41.61310        48.34006        -0.26696
C         43.62717        25.29593         0.53780
C         45.07925        27.40895         0.57546
C         43.88524        26.67124         0.47831
C         45.11319        28.82335         0.67162
C         43.84195        29.56711         0.45334
C         45.14677        31.80107         0.32050
C         43.84569        31.04600         0.22815
C         45.16322        33.21865        -0.11053
C         43.88541        33.89575        -0.47228
C         45.17590        36.08538        -0.15724
C         43.92190        35.37211        -0.48337
C         45.18406        37.46515        -0.18946
C         43.88221        38.28232        -0.33731
C         45.23750        40.35272        -0.15244
C         44.09396        39.56602         0.49274
C         45.35507        41.85205         0.05851
C         44.01324        42.52454        -0.22490
C         45.35293        44.66338        -1.18374
C         44.00447        44.00230        -0.51568
C         45.35959        46.22096        -1.17221
C         44.40468        46.92551        -1.90219
C         43.84814        48.19978        -1.49800
C         47.50209        27.42744         0.87928
C         46.41574        26.87533         0.71611
C         47.80099        28.86731         1.20895
C         46.38364        29.58585         0.95773
C         47.74983        31.79028         0.31978
C         46.43094        31.06170         0.60517
C         47.73173        33.14788        -0.38783
C         46.41204        33.94575        -0.55307
C         47.72320        36.06961        -0.09476
C         46.44919        35.30403         0.17225
C         47.66452        37.42685         0.13120
C         46.43155        38.14234         0.02070
C         47.78661        40.33508        -0.10523
C         46.52936        39.58463        -0.21759
C         47.82441        41.71464        -0.24297
C         46.55975        42.42208        -0.78136
C         47.85976        44.68395        -0.18775
C         46.57379        43.95342        -0.52982
C         47.69744        46.11150        -0.50471
C         46.57764        46.67598        -0.57540
C         50.29612        29.01956         0.82900
C         48.93662        29.43672         0.34879
C         50.33872        31.65109        -0.14416
C         49.03920        31.00079         0.32756
C         50.36018        33.13348        -0.35164
C         49.04215        33.89452        -0.53980
C         50.23867        36.15308         0.08898
C         49.03168        35.45666        -0.58646
C         50.14054        37.38734         0.65687
C         48.84630        38.17669         0.69464
C         50.07822        40.34066         0.87965
C         49.05954        39.56954         0.07643
C         49.89445        41.74585         1.00876
C         48.97305        42.44598         0.17674
C         50.42812        44.40081         0.19583
C         49.14670        43.88769        -0.37962
C         51.36307        29.62169         0.93907
C         52.63399        31.92143         0.77960
C         51.93074        30.75570         0.21404
C         52.69453        33.09561         0.37914
C         51.62919        33.94953        -0.16047
C         52.59496        36.25692         0.62306
C         51.57309        35.43577        -0.03105
C         52.52630        37.41160         1.04299
C         51.27146        38.13334         1.43770
C         52.30397        40.53482         1.50674
C         51.26876        39.64270         1.22529
C         52.72387        41.72026         1.23482
C         51.83918        42.80161         1.36861
C         51.52182        43.92869         0.55673
O         45.07538        32.90124         1.32193
O         35.78473        30.74425         1.71206
O         39.14314        42.99308        -1.57373
O         42.24782        44.27451         1.40699
O         37.37447        39.88578        -1.51884
O         32.46732        31.34278        -1.79458
O         51.89600        34.81878        -1.28714
O         46.28307        30.60107         1.99001
O         49.69972        39.38276        -1.27460
O         49.08249        35.78116        -1.99250
O         43.06951        41.39863         1.78503
O         33.48506        29.81851         1.34302
O         33.64145        35.33825         1.49890
O         40.19096        27.08217         0.88944
O         50.49819        32.13613        -1.46550
O         46.44633        42.13004        -2.12312
O         45.70308        39.91576        -1.41978
O         39.88725        37.67702         2.29110
O         46.93083        44.26005         0.84331
O         35.01049        41.25452        -1.36629
O         37.86400        31.98462         1.90421
O         36.04790        35.33561        -1.40706
O         48.40125        33.23162        -1.67100
O         50.61448        42.41950         2.02980
O         38.07254        35.57842         1.77684
O         48.59515        31.72042         1.50821
O         43.40425        30.51556         1.49007
O         35.43629        44.11494        -1.37413
O         43.23320        35.94093        -1.67171
O         43.59139        43.00472        -1.52012
O         40.83454        34.69986        -1.40050
O         37.21077        42.20572         1.35475
O         42.65591        28.82718        -1.58877
O         39.24641        40.08600         1.69869
O         33.20536        39.59966        -1.43144
O         37.70830        45.56941        -1.73971
O         38.77314        30.74626        -1.59920
O         40.09270        33.24171         1.69207
O         36.55706        29.40288        -1.63258
O         34.29811        33.34580        -1.56687
H         33.56715        33.76840        -2.08056
O         32.40540        38.77889         2.61662
H         32.47759        39.48733         3.28902
O         48.48655        38.44395         2.06614
H         48.31924        37.59378         2.52516
O         45.65172        42.09589         1.43888
H         44.87334        41.80726         1.97938
O         51.00967        37.91222         2.81922
H         51.63517        38.44137         3.35625
O         41.00890        35.52122         2.08828
H         40.60163        36.15393         2.74769
O         41.80060        24.95226        -1.61022
H         41.98767        24.01822        -1.83705
O         36.80186        32.97678        -1.23957
H         36.23772        33.48006        -1.87702
H         49.09742        36.76402        -2.09603
O         34.97773        37.62127        -1.88606
H         33.77201        39.10001        -2.06882
O         49.29690        43.77628        -1.79498
H         50.13703        43.31951        -2.00578
O         41.02561        31.33945        -2.23540
H         41.80899        31.24001        -2.82618
O         48.16495        29.03151         2.54661
H         47.39846        28.85755         3.12967
O         37.72510        27.36813        -2.93001
H         37.02193        28.00806        -3.17753
O         43.63219        38.64828        -1.70197
H         43.49737        37.81262        -2.20818
O         40.84386        30.84853         1.37101
H         40.57498        31.46687         2.09425
O         30.89983        38.51472        -0.68914
H         31.55661        39.08725        -1.16677
O         52.44285        30.36654        -0.99647
H         52.68441        31.15520        -1.52586
O         43.54712        31.51050        -2.04213
H         43.63856        32.38382        -2.48075
O         40.09475        45.87081         1.73683
H         40.25445        46.68993         2.24997
O         48.73174        29.00679        -0.98714
H         49.55022        29.14522        -1.50816
O         36.22630        37.57839        -2.61036
H         36.44171        38.53508        -2.75689
O         34.61341        42.20563         2.16886
H         34.00969        42.69772         2.76893
O         45.33238        44.33626        -2.55878
H         45.63275        43.37063        -2.67506
O         35.10405        33.29954         1.99490
H         35.59040        32.62865         2.52883
O         44.54559        39.16278         1.80647
H         43.78314        39.23091         2.42887
O         39.51394        37.93512        -1.30893
H         38.83513        38.35840        -1.88352
O         46.51763        35.10254         1.61089
H         45.92574        34.35587         1.87527
O         35.42575        28.08566         1.69471
H         34.87295        28.70878         2.22199
O         30.86033        42.76500         0.01514
H         29.97947        43.15026         0.19801
O         40.22686        28.49841        -2.59247
H         40.17580        29.38379        -3.01777
O         41.63088        39.51160         2.50649
H         40.84150        38.94926         2.78025
O         32.50514        32.81644         1.57313
H         32.92536        33.60217         2.00280
O         42.37801        27.68968         1.94413
H         41.41515        27.70195         2.15243
O         46.19106        34.22095        -1.94506
H         47.07564        34.23720        -2.39054
O         43.64826        46.29779        -2.81180
H         44.05511        45.41153        -3.01806
O         48.74565        38.65678        -2.08487
H         48.23393        39.37233        -2.54202
O         31.78434        34.07748        -1.84790
H         31.60954        33.25415        -2.36107
O         40.67830        45.11513        -1.75051
H         40.30410        44.42262        -2.34115
O         43.80387        46.82376         0.83097
H         44.54398        46.20383         0.99182
