         200
 CSIRO Nanostructure Databank - Neutral Graphene Oxide Data Set
C        -11.15470         0.71349         0.60782
C         -9.93696         1.46153         0.48246
C         -8.71771         0.72942         0.43431
C         -7.46055         1.49345         0.37528
C         -6.17487         0.74859         0.29274
C         -4.99989         1.43064        -0.36437
C         -3.71201         0.71207        -0.03426
C         -2.49845         1.42674        -0.03430
C         -1.26059         0.71912         0.09724
C         -0.04997         1.46012         0.01799
C          1.18302         0.77135         0.17967
C          2.40862         1.49790         0.03593
C          3.65163         0.81933         0.07461
C          4.89759         1.49315        -0.06662
C          6.12910         0.76554         0.12134
C          7.36509         1.47792         0.15984
C          8.57653         0.75088         0.33239
C          9.81441         1.47715         0.43159
C         11.03116         0.70927         0.57420
C         -9.91741         2.88629         0.49122
C         -8.74261         3.63412         0.29742
C         -7.51763         2.89108        -0.19908
C         -6.20738         3.61874         0.01478
C         -4.99295         2.91392        -0.06638
C         -3.74193         3.59276        -0.03222
C         -2.50634         2.86750        -0.10184
C         -1.28917         3.58939        -0.14578
C         -0.04576         2.88127        -0.15414
C          1.17304         3.59946        -0.26879
C          2.41876         2.89608        -0.22488
C          3.65431         3.56640        -0.40918
C          4.89832         2.89182        -0.28223
C          6.15394         3.61510        -0.20998
C          7.36668         2.90062         0.05146
C          8.59603         3.61735         0.22102
C          9.80394         2.87343         0.40223
C         -8.68731         5.03579         0.39210
C         -7.45833         5.74391         0.33055
C         -6.23070         5.00989         0.25440
C         -4.95797         5.70094         0.43919
C         -3.71201         5.00823         0.11237
C         -2.51208         5.73660        -0.02265
C         -1.28741         5.02093        -0.17748
C         -0.06682         5.73348        -0.31518
C          1.16922         5.02886        -0.38018
C          2.38015         5.74503        -0.54354
C          3.62879         4.99779        -0.72260
C          4.95936         5.76895        -0.63122
C          6.17168         5.02193        -0.26233
C          7.36758         5.74747         0.03015
C          8.56632         5.03369         0.23756
C         -7.43084         7.18200         0.27543
C         -6.26087         7.91441         0.16261
C         -4.95756         7.25950         0.36180
C         -3.73097         7.91042        -0.07885
C         -2.51727         7.18031        -0.14960
C         -1.30579         7.85509        -0.44846
C         -0.07294         7.15998        -0.44205
C          1.16775         7.87313        -0.50513
C          2.39687         7.16687        -0.53107
C          3.65450         7.88112        -0.40665
C          4.87970         7.20768        -0.34926
C          6.10860         7.89050        -0.03183
C          7.30363         7.18347         0.10021
C         -6.22616         9.33018        -0.11793
C         -5.05245         9.99767        -0.32001
C         -3.76297         9.32407        -0.37066
C         -2.59847        10.00512        -0.65906
C         -1.30771         9.28594        -0.91936
C         -0.04940        10.00983        -0.51575
C          1.15184         9.32593        -0.43035
C          2.40915        10.00080        -0.23440
C          3.61494         9.31581        -0.20716
C          4.86654        10.00029         0.02806
C          6.04779         9.32587         0.12537
C        -11.14364        -0.65846         0.64711
C         -9.91856        -1.40677         0.57464
C         -8.68180        -0.67492         0.48757
C         -7.43536        -1.40180         0.40070
C         -6.20035        -0.72360         0.26993
C         -4.97510        -1.41578         0.15241
C         -3.72228        -0.69402         0.08878
C         -2.48643        -1.41759         0.18221
C         -1.24565        -0.71192         0.23576
C         -0.01581        -1.42686         0.47553
C          1.18026        -0.60294         0.57112
C          2.46241        -1.08487         0.94612
C          3.64322        -0.53727         0.46888
C          4.84499        -1.34385         0.17976
C          6.13321        -0.63736         0.25119
C          7.33468        -1.38341         0.31674
C          8.56696        -0.67378         0.38085
C          9.79670        -1.41412         0.48487
C         11.02375        -0.65665         0.59119
C         -9.90309        -2.80729         0.57615
C         -8.68943        -3.54139         0.46974
C         -7.44547        -2.82725         0.37856
C         -6.22106        -3.54304         0.25617
C         -4.97402        -2.84087         0.17351
C         -3.74306        -3.55257         0.11771
C         -2.49667        -2.84533         0.17229
C         -1.25951        -3.56277         0.23939
C         -0.03813        -2.86655         0.47103
C          1.11376        -3.81252         0.85794
C          2.49828        -3.26146         0.91011
C          3.58674        -3.64813         0.21543
C          4.82068        -2.82781         0.03172
C          6.11299        -3.55456         0.09009
C          7.32057        -2.82843         0.27497
C          8.55561        -3.54866         0.33219
C          9.77455        -2.81075         0.46999
C         -8.67780        -4.95613         0.43575
C         -7.47876        -5.67741         0.29661
C         -6.23607        -4.96652         0.20919
C         -5.01409        -5.67994         0.04502
C         -3.76983        -4.98014         0.01649
C         -2.55627        -5.70366        -0.14282
C         -1.29663        -5.01206         0.02368
C         -0.11289        -5.75399        -0.07775
C          1.14655        -5.10521         0.08681
C          2.33881        -5.71762        -0.25355
C          3.54471        -4.88651        -0.63820
C          4.88721        -5.63772        -0.59441
C          6.11527        -4.94054        -0.12609
C          7.33614        -5.67712         0.00427
C          8.52712        -4.96593         0.24535
C         -7.46056        -7.11167         0.24475
C         -6.28561        -7.81014         0.03759
C         -5.03844        -7.09830        -0.10041
C         -3.84304        -7.79354        -0.38785
C         -2.62253        -7.10360        -0.41906
C         -1.40309        -7.86533        -0.75242
C         -0.10637        -7.14211        -0.56326
C          1.10539        -7.95322        -0.27741
C          2.40388        -7.18037        -0.25294
C          3.64163        -7.90248        -0.50651
C          4.90531        -7.15023        -0.61049
C          6.15807        -7.85271        -0.25692
C          7.31267        -7.12754        -0.05442
C         -6.23707        -9.26842         0.01601
C         -5.12223        -9.94336        -0.32886
C         -3.89340        -9.23850        -0.84399
C         -2.60285        -9.99334        -0.61014
C         -1.38605        -9.35421        -0.67518
C         -0.12143       -10.04652        -0.70154
C          1.12446        -9.39897        -0.58819
C          2.39066       -10.03123        -0.57200
C          3.62338        -9.30434        -0.49993
C          4.91201        -9.97839        -0.42414
C          6.08518        -9.29944        -0.24418
O          4.70084        -1.98581        -1.17775
O          4.38564         5.37515        -1.92210
O         -5.19157         1.26776        -1.80408
H         -4.42734         1.67928        -2.25881
O          0.81030        -4.22048         2.23174
H         -0.06548        -4.66191         2.22895
O         -7.70693         2.72990        -1.63656
H         -7.79442         3.62249        -2.03076
O          3.30941        -4.48612        -2.01025
H          3.82111        -5.10525        -2.58156
O         -4.85819         6.54084         1.63083
O         -1.22108         9.19995        -2.41343
H         -0.38380         8.73008        -2.62024
O         -6.60576         1.34938         1.55911
O          1.70878        -7.67132         1.00794
O          2.60326        -2.18353         1.79228
O         -0.65818        -7.33305        -1.90867
O          5.08237        -6.35403        -1.86383
O         -4.04533        -9.19351        -2.30942
H         -3.26840        -8.71221        -2.66773
H         11.97079        -1.20868         0.68681
H         11.98413         1.25303         0.65761
H         10.75183         3.42250         0.51065
H          9.49784         5.58919         0.42363
H          8.22972         7.73733         0.31652
H          6.98116         9.87049         0.33084
H          4.84418        11.09293         0.15523
H          2.40365        11.09379        -0.10571
H         -0.05563        11.10981        -0.47663
H         -2.63448        11.08765        -0.85517
H         -5.07047        11.07948        -0.51890
H         -7.18092         9.87551        -0.16149
H         -8.39557         7.70839         0.20562
H         -9.61480         5.60051         0.57566
H        -10.85933         3.41993         0.69522
H        -12.10876         1.25796         0.66608
H        -12.09048        -1.21224         0.73194
H        -10.85377        -3.35787         0.64348
H         -9.63104        -5.50186         0.50250
H         -8.40978        -7.65723         0.35629
H         -7.14533        -9.81478         0.31411
H         -5.12174       -11.04407        -0.33346
H         -2.64237       -11.09346        -0.58157
H         -0.14350       -11.14360        -0.78989
H          2.44000       -11.12669        -0.66554
H          4.92066       -11.07856        -0.43090
H          7.02116        -9.86150        -0.10498
H          8.25875        -7.66184         0.12514
H          9.47305        -5.52221         0.33160
H         10.72350        -3.36479         0.53628
