         477
 CSIRO Nanostructure Databank - Neutral Graphene Oxide Data Set
C         27.74776        27.41205         0.06993
C         27.71306        28.80087         0.22735
C         26.53021        29.58982         0.01285
C         27.71354        31.74902         0.41844
C         26.50917        30.95291         0.09177
C         27.83240        33.20987         0.11478
C         26.63645        33.95418        -0.21468
C         27.83042        36.08037         0.12340
C         26.61793        35.30650        -0.18533
C         27.87506        37.57066        -0.18748
C         26.73843        38.21205        -0.88462
C         28.17281        40.13344        -1.63153
C         26.87642        39.36650        -1.54690
C         28.02346        41.50266        -0.84480
C         26.79688        42.32081        -1.18087
C         27.94425        44.36661        -0.43947
C         26.77583        43.64817        -0.94822
C         27.85765        45.70292        -0.01339
C         30.22185        27.29047         0.12476
C         28.94769        26.68029         0.06213
C         30.25939        28.72812         0.49271
C         28.95787        29.48388         0.60572
C         30.25257        31.68637         0.16827
C         28.98592        30.98563         0.62747
C         30.28677        33.12831         0.71931
C         29.03168        33.87802         0.30374
C         30.32209        35.99853         0.27121
C         29.11092        35.32762         0.22779
C         30.34806        37.51607         0.40934
C         29.21198        38.20481        -0.34107
C         30.66367        40.11699        -1.12243
C         29.34044        39.40056        -0.96182
C         30.55839        41.59517        -0.73971
C         29.28792        42.35702        -1.06497
C         30.32617        44.37409         0.10551
C         29.18729        43.70374        -0.37220
C         30.24850        45.74098         0.46185
C         28.99931        46.38346         0.40527
C         32.68207        24.46968        -0.23305
C         31.51927        25.17055        -0.05652
C         32.65906        27.41309        -0.46072
C         31.43919        26.59442        -0.07134
C         32.77553        28.73051         0.28856
C         31.51130        29.52058         0.36018
C         32.78426        31.63616         0.20677
C         31.51551        30.87846         0.40007
C         32.80793        33.09443         0.53587
C         31.55739        33.86353         0.35392
C         32.83799        35.95483         0.28751
C         31.58434        35.26057         0.29421
C         32.89521        37.37303         0.31195
C         31.69071        38.11909         0.10935
C         32.95854        40.16971        -0.12561
C         31.79446        39.46142        -0.34580
C         33.01883        41.61123        -0.55979
C         31.66954        42.26640        -0.36095
C         32.85413        44.30533         0.68855
C         31.59154        43.61214         0.25840
C         32.80408        45.77832         0.98957
C         31.47628        46.50246         0.85717
C         32.68017        48.63956         0.44504
C         31.53122        47.94182         0.51047
C         35.27654        23.01972        -0.28049
C         35.26012        24.41449        -0.34257
C         33.96562        25.13288        -0.53185
C         35.27201        27.34376        -0.32790
C         33.97805        26.63303        -0.53771
C         35.30053        28.70441        -0.22508
C         34.08474        29.43796         0.18570
C         35.38285        31.63489         0.14119
C         34.08078        30.92182         0.04418
C         35.39185        33.03775         0.26448
C         34.12670        33.78896         0.49327
C         35.39475        35.94020         0.39122
C         34.12477        35.21967         0.00705
C         35.37370        37.35062         0.58861
C         34.13415        38.05989         0.46857
C         35.35968        40.28052         0.73430
C         34.01597        39.54588         0.75022
C         35.49260        41.58837        -0.07365
C         34.21060        42.36591        -0.01452
C         35.40108        44.46038         0.49249
C         34.17103        43.67380         0.38099
C         35.36138        45.85253         0.56795
C         34.09222        46.55329         0.89984
C         35.20891        48.79354         0.16923
C         34.00867        48.04601         0.71815
C         35.28807        50.19208         0.72583
C         37.71350        22.94516        -0.22123
C         36.50548        22.30820        -0.30577
C         37.77921        24.44093        -0.03490
C         36.47601        25.14196        -0.35616
C         37.74762        27.24196        -0.32762
C         36.52258        26.57271        -0.39195
C         37.77623        28.68900         0.11893
C         36.59148        29.46160        -0.46319
C         37.81446        31.60140        -0.00694
C         36.58000        30.91381        -0.02310
C         37.80907        33.02076         0.05495
C         36.60654        33.75560         0.19556
C         37.83458        35.94000         0.45273
C         36.61091        35.22251         0.34628
C         37.82894        37.33715         0.67291
C         36.61474        38.03435         0.80121
C         37.91731        40.24129         0.72196
C         36.63220        39.51312         0.89440
C         37.91016        41.61269         0.57667
C         36.70499        42.36429         0.35783
C         37.90153        44.51188         0.54753
C         36.67226        43.75742         0.46655
C         37.85767        45.95983         0.38697
C         36.56254        46.65028         0.40893
C         37.72027        48.84095         0.19507
C         36.51850        48.04601         0.33354
C         37.69675        50.22190         0.33292
C         36.46076        50.85994         0.74441
C         40.09537        20.42999         1.10375
C         38.97413        20.90018         0.50406
C         40.24842        22.94435        -0.20340
C         38.98831        22.12862        -0.36443
C         40.26138        24.30514        -0.77514
C         38.96439        25.07198        -0.76961
C         40.30991        27.23926        -0.47408
C         38.98834        26.59758        -0.89563
C         40.29126        28.69771        -0.26861
C         39.08088        29.41318        -0.13640
C         40.29970        31.52476        -0.02141
C         39.06941        30.83566        -0.08086
C         40.34508        33.00267        -0.15094
C         39.06195        33.77037        -0.16134
C         40.40763        35.88440         0.48561
C         39.10909        35.25731         0.12114
C         40.42372        37.34854         0.67098
C         39.12364        38.08163         0.69833
C         40.45628        40.18861         1.06886
C         39.11670        39.48756         1.27345
C         40.41120        41.66593         1.21591
C         39.13262        42.38002         0.90368
C         40.36434        44.45877         0.28977
C         39.13111        43.82913         0.59448
C         40.35811        45.97259         0.46461
C         39.03050        46.66298         0.22081
C         40.21036        48.92992         0.28361
C         39.00385        48.13157        -0.17895
C         40.21255        50.39899         0.15524
C         38.88951        51.09240        -0.06203
C         40.08116        53.15275         0.75754
C         38.92681        52.49771         0.50112
C         42.53054        20.53413         1.54413
C         41.35574        21.10090         0.96648
C         42.67275        23.09611         0.22394
C         41.40679        22.36600         0.29168
C         42.75015        24.36867        -0.25820
C         41.58140        25.06630        -0.95135
C         42.79265        27.32248        -0.77815
C         41.49191        26.55591        -0.57892
C         42.79459        28.73601        -0.25941
C         41.52439        29.41190        -0.17414
C         42.77316        31.49193         0.36361
C         41.50699        30.80735         0.03349
C         42.80708        32.97408         0.56123
C         41.60346        33.74764         0.15711
C         42.88433        35.83531         0.67424
C         41.59402        35.18999         0.49779
C         42.98310        37.24062         1.25039
C         41.60575        38.01249         1.38913
C         42.97136        40.18303         1.24430
C         41.62957        39.50082         1.02542
C         42.94083        41.65739         0.86238
C         41.71102        42.47205         1.21017
C         42.75378        44.18110        -0.25712
C         41.55901        43.69838         0.29969
C         42.73629        46.30019        -0.48276
C         41.53710        46.79316        -0.00226
C         42.76678        48.96400         0.00676
C         41.52281        48.21404         0.33838
C         42.70498        50.44784         0.12095
C         41.38451        51.09758         0.32727
C         42.57887        53.15413         0.87840
C         41.38263        52.51329         0.63003
C         43.76159        21.09374         1.35483
C         45.26706        22.96603         0.37916
C         43.90895        22.31582         0.55127
C         45.30703        24.41307         0.07974
C         43.99265        25.16307         0.07880
C         45.25340        27.22607        -0.42942
C         44.06344        26.57279        -0.43873
C         45.30391        28.67936        -0.03083
C         43.99987        29.41673        -0.16015
C         45.24100        31.56802        -0.01098
C         44.04733        30.82964         0.08079
C         45.25599        33.00714         0.11229
C         44.07268        33.68443         0.37221
C         45.39258        35.75076         0.22833
C         44.05906        35.11984         0.47618
C         45.43912        37.27708         0.54470
C         44.12057        38.03477         0.61755
C         45.44896        40.14436         0.41187
C         44.12241        39.39220         0.60397
C         45.27232        41.59738         0.00763
C         44.06440        42.31637         0.44048
C         45.22820        44.53617        -0.09295
C         44.04293        43.72225         0.04798
C         45.20712        45.99693        -0.02426
C         44.02528        46.80649        -0.10396
C         45.20656        48.92891         0.36422
C         44.05152        48.23017         0.15667
C         45.24885        50.42762         0.08251
C         43.95548        51.17286         0.41668
C         43.85245        52.48657         0.78011
C         47.68252        23.03449         0.83072
C         46.51053        22.35939         0.88588
C         47.75284        24.41929         0.40705
C         46.50369        25.08550         0.07918
C         47.81817        27.24990        -0.37585
C         46.53761        26.43575        -0.60949
C         47.80706        28.75180        -0.41300
C         46.52018        29.49014        -0.42550
C         47.71986        31.68219        -0.23202
C         46.48054        30.85516        -0.28347
C         47.66667        33.12424        -0.77973
C         46.43532        33.90145        -0.22504
C         47.84121        35.88992         0.14884
C         46.67543        35.06597         0.75103
C         47.75619        37.18283        -0.30042
C         46.49532        37.95382        -0.29670
C         47.65576        40.26509        -1.12002
C         46.45092        39.43517        -0.53040
C         47.84245        41.61419        -0.29693
C         46.51233        42.39044        -0.29878
C         47.69500        44.57508         0.11288
C         46.49227        43.86504        -0.06677
C         47.64913        45.99020         0.32723
C         46.43878        46.68656         0.26382
C         47.70939        48.90392         0.48752
C         46.43382        48.13944         0.74491
C         47.66367        50.33357         0.64561
C         46.51234        51.05265         0.59436
C         50.22885        24.49363         0.59028
C         48.95909        25.12712         0.42230
C         50.24266        27.34308         0.37200
C         48.90808        26.63809         0.49617
C         50.23867        28.77529         0.21616
C         49.02629        29.46406        -0.00332
C         50.30664        31.56990        -0.46141
C         49.01120        30.93655        -0.07289
C         50.26785        33.04990        -0.66688
C         49.00076        33.80766        -0.46651
C         50.29098        35.89316        -0.39589
C         49.06020        35.14608        -0.15637
C         50.26620        37.28771        -0.61753
C         48.93690        37.88651        -0.84424
C         50.22224        39.95468        -1.41396
C         48.89449        39.33015        -1.23694
C         50.22788        42.13186        -1.08457
C         48.99355        42.58743        -0.59956
C         50.22125        44.56061         0.14333
C         48.97885        43.89077        -0.04254
C         50.23998        45.99358         0.54035
C         48.91286        46.73009         0.60087
C         50.15249        48.85849         0.18247
C         48.92392        48.20556         0.40980
C         51.39524        25.20480         0.69051
C         52.68310        27.36462         0.75539
C         51.43458        26.64626         0.60032
C         52.68516        28.79306         0.67110
C         51.47858        29.49230         0.33212
C         52.75246        31.57419         0.09592
C         51.55549        30.88973        -0.00620
C         52.81982        33.03880        -0.11724
C         51.54732        33.77724        -0.38517
C         52.56806        35.94876        -1.16726
C         51.47801        35.21685        -0.70591
C         52.70630        37.32727        -0.93496
C         51.46883        38.01837        -0.75362
C         52.69823        40.23026        -1.03793
C         51.42776        39.44441        -1.02152
C         52.71363        41.74397        -0.78433
C         51.47765        42.59889        -0.64101
C         52.72111        44.57065         0.27696
C         51.44889        43.87526        -0.02503
C         52.75977        46.09339         0.28267
C         51.45989        46.79093         0.25202
C         51.37144        48.16597         0.10304
C         55.07429        27.41291         1.25918
C         53.90768        26.70614         1.04574
C         55.08485        28.83648         1.21088
C         53.88472        29.51337         0.91264
C         55.18768        31.70598         0.91688
C         53.83785        31.01494         0.98528
C         55.25479        33.10768         0.57562
C         54.17275        33.67077        -0.15504
C         55.36941        35.84954        -0.38042
C         54.39513        34.90730        -0.77327
C         55.22897        37.28673        -0.68812
C         54.00177        37.96757        -0.87929
C         55.26367        40.19800        -0.57261
C         53.95206        39.44682        -0.67843
C         55.36256        41.72305        -0.52542
C         53.97729        42.34245        -0.21035
C         55.16143        44.55832        -0.53901
C         54.00319        43.82128         0.00802
C         55.11358        45.98064        -0.54106
C         54.02400        46.71699        -0.13589
C         56.28668        29.58241         1.42855
C         56.32828        30.96426         1.26125
C         56.37900        33.95737         0.81183
C         56.39140        35.30058         0.44251
C         56.45591        38.05794        -0.72736
C         56.48759        39.41473        -0.78135
C         56.01409        42.51431        -1.62964
C         56.02067        43.87528        -1.46983
O         53.56767        35.25314        -1.84646
O         52.80173        45.27987         1.52625
O         49.59259        46.30168         1.82917
O         48.21141        27.89929        -1.60678
O         52.00522        33.63733         1.02527
O         27.59942        37.10501         1.17859
O         33.51809        33.48956         1.78155
O         54.00803        42.83005         1.15029
O         35.94779        40.19322         2.05328
O         46.00229        40.12143         1.70790
O         42.69734        49.76004        -1.22731
O         42.67043        45.14575        -1.26336
O         50.32699        32.13224        -1.81033
O         33.99427        25.88458        -1.81403
O         39.01758        34.72767        -1.25952
O         29.61097        28.93112         1.80055
O         48.35259        31.59706         1.08764
O         32.07711        43.52979         1.65527
O         28.48334        40.36071        -2.98785
O         42.70143        32.11587         1.73186
O         33.59590        28.86264         1.47559
O         39.53900        42.09502         2.32572
O         45.81437        35.01469        -1.12416
O         40.81292        48.56729         1.58536
O         45.94483        38.51771        -1.53720
O         52.92697        41.18277        -2.12304
O         45.60030        41.96372        -1.36257
O         39.91279        38.02467        -0.53486
O         34.24290        47.48659         2.03308
O         50.19050        41.16484        -2.08493
O         48.71738        38.28996        -2.26621
O         41.30278        38.10016         2.76655
O         33.32415        31.37229        -1.15453
O         32.02255        46.12512         2.16233
O         54.50773        39.78778         0.63190
O         44.68509        22.12277        -0.69900
O         39.38051        24.38911        -1.97521
O         41.24386        33.43474        -1.23310
O         28.27823        31.49976         1.77434
O         46.35764        48.03086         2.21638
H         47.12581        47.49600         2.51524
O         41.89355        25.01445        -2.37599
H         41.02585        25.04322        -2.84680
O         48.44416        26.93046         1.86368
H         49.11054        26.57525         2.48938
O         48.21007        41.23910         1.04405
H         47.41370        40.83385         1.52575
O         34.16039        35.08309        -1.46096
H         34.34760        35.96585        -1.84540
O         29.38315        42.70677        -2.46584
H         29.03379        41.92001        -2.98478
O         38.90189        26.88046        -2.32841
H         38.62501        27.81696        -2.43794
O         46.54151        26.06245        -2.01899
H         46.99372        26.78890        -2.50973
O         43.78919        25.41146         1.54088
H         44.41595        26.12009         1.81323
O         30.13398        31.77063        -1.28059
H         31.03239        31.85964        -1.66831
O         38.99360        21.65550        -1.75546
H         39.03348        22.46684        -2.31654
O         56.24725        41.95459         0.60018
H         55.67234        42.16894         1.37598
O         45.48463        28.53512         1.44416
H         45.53447        29.43848         1.82856
O         38.73070        51.25261        -1.51692
H         39.56556        51.62962        -1.86789
O         32.37029        27.86343        -1.82119
H         32.64831        27.12798        -2.41807
O         43.44593        36.98834         2.60860
H         42.68711        37.30661         3.19163
O         33.47897        39.66207         2.10099
H         34.25504        39.68973         2.71089
O         30.34934        33.01969         2.16144
H         30.33502        33.92183         2.54383
O         34.97831        48.91811        -1.27243
H         35.66644        49.51910        -1.63073
O         38.07803        24.69707         1.38656
H         37.32655        24.35436         1.91575
O         33.21913        41.60388        -2.02441
H         32.45800        41.09166        -2.42563
O         27.93968        41.12676         0.54587
H         27.75056        41.92990         1.07508
O         42.86089        27.50378        -2.23576
H         42.72037        26.60734        -2.63680
O         43.15502        40.11867         2.67764
H         42.54460        39.40854         3.02493
O         39.11715        48.13901        -1.63740
H         38.28973        47.76691        -2.00888
O         45.34372        50.50721        -1.38252
H         44.46539        50.21570        -1.73608
O         31.03555        40.03782        -2.52857
H         30.15950        40.16036        -3.02462
O         45.96366        37.29731         1.90639
H         45.18762        37.42283         2.51328
O         38.85422        39.38502         2.68700
H         38.98835        40.28192         3.07209
O         30.13700        37.80265         1.82848
H         29.17112        37.66294         1.99996
O         53.35307        31.33756         2.35194
H         52.97570        32.24738         2.32206
O         37.58781        28.68237         1.56322
H         38.30941        28.15660         1.96726
O         36.80525        29.47663        -1.90421
H         36.07889        29.98664        -2.32196
O         35.76404        41.14891        -1.43759
H         34.94331        41.29722        -1.97780
O         46.83578        34.76637         2.11343
H         46.72689        35.61581         2.60233
O         40.50275        45.99828         1.94262
H         40.48558        46.95071         2.22042
O         41.93052        43.01925         2.52596
H         41.04107        43.15766         2.92953
O         47.34812        40.62182        -2.46276
H         47.06377        39.79788        -2.91794
O         47.52630        33.03418        -2.20523
H         47.15898        33.88681        -2.52546
H         26.80676        26.87587        -0.12337
H         25.60317        29.05591        -0.24580
H         25.56442        31.47515        -0.11603
H         25.70673        33.40889        -0.42548
H         25.67118        35.84096        -0.33733
H         25.75712        37.71701        -0.84783
H         26.01590        39.78409        -2.09047
H         25.88517        41.81237        -1.52790
H         25.85791        44.22897        -1.12740
H         26.88903        46.22225        -0.03933
H         28.88337        25.60002        -0.13037
H         28.90942        47.43520         0.70982
H         32.65591        23.37671        -0.12886
H         30.60799        24.60259         0.18179
H         32.65506        49.68479         0.10220
H         30.59405        48.44118         0.22427
H         34.34205        22.44585        -0.29875
H         34.36016        50.69233         1.03800
H         36.46871        21.21574        -0.42135
H         36.48446        51.90284         1.08919
H         40.05973        19.50448         1.69785
H         38.03221        20.34044         0.59354
H         40.05440        54.20364         1.08402
H         37.98132        53.05460         0.57236
H         42.43220        19.60201         2.11977
H         42.57298        54.21523         1.16639
H         44.65779        20.60101         1.75617
H         44.75210        53.07805         1.00253
H         48.60158        22.53342         1.16516
H         46.49783        21.30724         1.20355
H         48.60243        50.86193         0.87143
H         46.54503        52.13823         0.76319
H         50.28304        23.39605         0.59759
H         50.16680        49.94724         0.04177
H         52.33443        24.64880         0.80456
H         52.28466        48.75003        -0.07771
H         56.00843        26.87762         1.48192
H         53.94128        25.61068         1.11065
H         55.97943        46.51774        -0.95759
H         54.05248        47.80850        -0.26049
H         57.20929        29.03762         1.67475
H         57.29851        31.47585         1.34431
H         57.22193        33.57045         1.40146
H         57.21770        35.93857         0.78698
H         57.40113        37.49979        -0.79912
H         57.43581        39.95087        -0.92608
H         56.63600        42.03067        -2.39619
H         56.64555        44.49946        -2.12756
