         429
 CSIRO Nanostructure Databank - Neutral Graphene Oxide Data Set
C          1.16969         3.72082         1.70475
C         -0.01950         4.41355         1.73129
C          1.14821         6.54793         1.44584
C         -0.02520         5.82508         1.63345
C          1.02904         8.06507         1.57187
C         -0.03800         8.75337         0.72949
C          1.25190        10.35909        -0.82612
C          0.04918         9.71816        -0.20877
C          1.19670        11.81334        -1.28363
C         -0.02274        12.63761        -1.14194
C          1.18168        14.77483        -1.41355
C         -0.02061        13.99247        -1.24937
C          1.18707        16.17454        -1.49436
C         -0.00510        16.90330        -1.91582
C          0.96947        19.09153        -1.25948
C         -0.08073        18.24986        -1.94530
C          1.08543        20.51598        -1.81516
C         -0.01496        21.37512        -1.92445
C          1.15456        23.61562        -1.93968
C          0.00885        22.78825        -1.97685
C          1.15373        25.00633        -1.49138
C         -0.04534        25.72569        -1.30046
C          1.17424        27.76822        -0.73242
C         -0.03625        27.06364        -0.93918
C          1.19179        29.16436        -0.36698
C         -0.00524        29.92831        -0.27480
C          1.22993        31.92668         0.40802
C          0.01279        31.26008         0.06981
C          1.24957        33.27767         0.83659
C          0.10502        34.13076         0.76885
C          1.24854        35.94845         2.06195
C          0.08332        35.39114         1.28916
C          1.30261        37.45056         2.00841
C          3.62975         3.71333         1.56092
C          2.40548         4.41366         1.52700
C          3.64748         6.47390         1.03751
C          2.39253         5.83551         1.31901
C          3.68131         7.84438         0.57693
C          2.67830         8.38556        -0.20657
C          3.69711        10.60476        -0.26624
C          2.58894         9.80834        -0.45681
C          3.77357        11.95224        -0.85226
C          2.50536        12.56168        -1.40895
C          3.73207        14.84761        -1.23044
C          2.46125        14.06280        -1.52871
C          3.58269        16.27830        -0.90809
C          2.39211        16.91980        -1.19213
C          3.46782        19.27096        -0.72720
C          2.36879        18.42043        -1.43393
C          3.59052        20.56551        -1.50683
C          2.39585        20.99462        -2.10692
C          3.65363        23.59441        -1.81472
C          2.42560        23.07602        -2.26268
C          3.65412        24.99369        -1.41111
C          2.39480        25.68135        -1.27019
C          3.65006        27.73568        -0.66655
C          2.40562        27.05737        -0.88573
C          3.66831        29.10793        -0.29049
C          2.43347        29.82224        -0.11260
C          3.71702        31.84753         0.50633
C          2.45602        31.18073         0.30652
C          3.75478        33.18734         0.94936
C          2.49917        33.78856         1.52229
C          3.72584        35.98578         1.57658
C          2.54029        35.28877         1.64060
C          3.74021        37.43131         1.77322
C          2.46806        38.12106         1.92029
C          6.09967         3.70470         1.58975
C          4.86951         4.39111         1.49411
C          6.12573         6.53442         1.23869
C          4.86967         5.81316         1.26791
C          6.14128         7.96357         1.09609
C          4.85132         8.66690         0.93991
C          6.17839        10.77503         0.27950
C          4.87953        10.09513         0.44156
C          6.20591        12.10780        -0.15522
C          4.97653        12.78450        -0.57442
C          6.24729        14.90992        -0.95765
C          4.96482        14.12854        -0.81900
C          6.09869        16.34346        -0.55197
C          4.80847        17.00832        -0.51315
C          6.07018        19.21479        -0.88669
C          4.79647        18.53157        -0.55186
C          6.03996        20.63937        -1.23153
C          4.78065        21.34668        -1.46167
C          6.02965        23.48606        -1.24413
C          4.79971        22.76703        -1.64156
C          6.14241        24.95866        -1.57081
C          4.86014        25.66994        -1.21883
C          6.13358        27.70306        -0.63292
C          4.88564        27.03895        -0.83892
C          6.14701        29.07867        -0.30828
C          4.91449        29.78352        -0.13816
C          6.18134        31.86454         0.28215
C          4.93876        31.16473         0.21584
C          6.18858        33.24570         0.63977
C          4.97497        33.90205         0.97920
C          6.18988        36.02409         1.34715
C          4.98358        35.31064         1.30910
C          6.19064        37.44504         1.63902
C          4.92903        38.11690         1.80651
C          8.54705         3.71353         1.71376
C          7.34198         4.39554         1.56339
C          8.58217         6.56163         1.37491
C          7.33880         5.84427         1.40757
C          8.58661         7.98253         1.19019
C          7.33783         8.68462         1.04950
C          8.57721        10.81917         0.72161
C          7.36525        10.10955         0.70862
C          8.62015        12.18699         0.35123
C          7.43101        12.83782        -0.09122
C          8.61847        14.96424        -0.12701
C          7.45298        14.24079        -0.34200
C          8.59315        16.44771        -0.09668
C          7.28317        17.14867        -0.28201
C          8.59676        19.32047        -0.69925
C          7.26419        18.56986        -0.66858
C          8.47861        20.45230        -1.73366
C          7.25529        21.27693        -1.39205
C          8.59928        23.43174        -1.19856
C          7.32171        22.71466        -1.18239
C          8.59009        24.83062        -0.88740
C          7.38376        25.58978        -0.97967
C          8.61145        27.63167        -0.37931
C          7.37833        26.96036        -0.67867
C          8.63817        29.04413        -0.22102
C          7.39677        29.78333        -0.18761
C          8.67628        31.94318        -0.20583
C          7.39995        31.16981         0.01392
C          8.63391        33.32396         0.40394
C          7.44543        33.96097         0.72285
C          8.64798        36.07931         1.21816
C          7.44163        35.36379         1.10035
C          8.64426        37.48216         1.57093
C          7.38485        38.14012         1.74011
C         11.05981         3.70546         1.58132
C          9.82390         4.44615         1.98813
C         11.02929         6.55283         1.30170
C          9.81101         5.87241         1.50118
C         11.03421         7.97730         1.15045
C          9.81613         8.68150         1.15471
C         11.09795        10.85253         0.90132
C          9.80907        10.18195         1.30710
C         11.10218        12.23689         0.64125
C          9.85495        12.92183         0.39231
C         11.10093        15.05350         0.10447
C          9.85837        14.30566         0.14789
C         11.09765        16.40834        -0.27520
C          9.85580        17.13684        -0.45090
C         11.06777        19.05652        -1.35698
C          9.81730        18.43494        -0.89384
C         11.05084        20.48376        -1.83284
C          9.76565        21.32447        -1.98895
C         11.00461        23.29868        -0.94744
C          9.80353        22.69547        -1.31667
C         11.01550        24.62534        -0.20451
C          9.79536        25.47280        -0.48992
C         11.06487        27.53657         0.01694
C          9.81429        26.85906        -0.27212
C         11.05532        28.96157         0.21836
C          9.87655        29.71642         0.04229
C         11.12975        31.82216         0.40153
C          9.93034        31.15952         0.15769
C         11.19472        33.29960         0.38727
C          9.88911        34.07729         0.42384
C         11.11707        36.07267         1.25341
C          9.90758        35.43592         0.98391
C         11.11087        37.47679         1.63981
C          9.85054        38.15693         1.72599
C         13.46768         3.65912         1.14322
C         12.23846         4.37267         1.31443
C         13.47938         6.50553         1.04091
C         12.26884         5.82705         1.24137
C         13.50504         7.94648         0.97317
C         12.29149         8.67623         1.03199
C         13.56560        10.77925         0.90066
C         12.31486        10.10300         0.94198
C         13.55366        12.25711         1.01973
C         12.32380        12.98375         0.62030
C         13.58167        15.13914         0.39411
C         12.34297        14.36897         0.37792
C         13.58158        16.44812        -0.07392
C         12.34696        17.10829        -0.47518
C         13.60035        19.00623        -1.59669
C         12.34217        18.38792        -1.02541
C         13.58392        20.51013        -1.51857
C         12.34205        21.29405        -1.85452
C         13.57268        23.28857        -0.79786
C         12.24176        22.52917        -0.96414
C         13.50741        24.75071        -0.60842
C         12.31456        25.40555        -0.37144
C         13.51826        27.60071        -0.23539
C         12.27036        26.82074        -0.09771
C         13.60926        28.91062         0.45068
C         12.26934        29.64430         0.67454
C         13.57259        31.77754         0.88470
C         12.35874        31.11817         0.68995
C         13.61048        33.22652         0.98184
C         12.40960        33.96987         0.86979
C         13.58825        36.01337         1.50598
C         12.37950        35.35401         1.18783
C         13.58643        37.40189         2.08891
C         12.29417        38.13627         1.90758
C         15.90728         3.59722         0.92791
C         14.67986         4.32465         0.98533
C         15.92784         6.44409         0.72363
C         14.71332         5.77259         0.91504
C         15.97873         7.89243         0.70970
C         14.74858         8.63594         0.85612
C         16.08045        10.74556         0.98778
C         14.76696        10.05761         0.86842
C         16.15289        12.23781         1.18620
C         14.84196        13.00896         1.15988
C         16.18330        15.17597         0.63393
C         14.84305        14.49242         0.87528
C         16.18202        16.59992         0.15165
C         14.82503        17.25541        -0.15893
C         16.05951        19.16291        -1.12770
C         14.85098        18.47409        -0.96051
C         16.06032        20.55711        -1.46799
C         14.78089        21.22508        -1.43329
C         15.95553        23.41227        -1.69385
C         14.76943        22.64354        -1.30079
C         15.92470        24.89740        -1.43465
C         14.85170        25.42893        -0.50240
C         16.09035        27.61263        -0.41028
C         14.79046        26.93224        -0.61835
C         16.08360        28.94170         0.20758
C         14.83007        29.67110         0.39597
C         16.12798        31.79113         0.76899
C         14.86682        30.99788         1.11292
C         16.11041        33.21244         1.17030
C         14.82656        33.93131         1.18638
C         16.06048        36.11181         1.28313
C         14.82598        35.33722         1.37312
C         15.95885        37.56894         1.34246
C         14.79797        38.18261         1.67188
C         18.36598         3.52258         0.76947
C         17.12417         4.25050         0.78868
C         18.37640         6.33521         0.44100
C         17.15721         5.68786         0.63964
C         18.39343         7.78234         0.02700
C         17.19745         8.56012         0.51211
C         18.49108        10.65514         0.33512
C         17.29285         9.98457         0.57459
C         18.46453        12.15410         0.08351
C         17.51593        12.96441         1.00710
C         18.64721        15.09569         0.15645
C         17.39858        14.38163         0.45870
C         18.62762        16.43725        -0.45903
C         17.38189        17.16964        -0.49335
C         18.50882        19.13736        -1.53460
C         17.31314        18.46258        -0.99516
C         18.52013        20.61455        -1.59133
C         17.27497        21.30610        -1.59635
C         18.48477        23.44721        -1.79345
C         17.26665        22.72797        -1.77167
C         18.49894        24.94594        -1.83234
C         17.21357        25.68030        -1.50024
C         18.49658        27.76412        -0.81102
C         17.25948        27.01412        -0.83027
C         18.51405        29.10549        -0.48437
C         17.38495        29.73989         0.18601
C         18.52966        31.98093         0.12297
C         17.30538        31.21260         0.36238
C         18.55296        33.37816         0.37685
C         17.38387        34.03315         0.99743
C         18.44903        36.27459         0.61176
C         17.26329        35.50415         0.94906
C         18.41425        37.68736         0.67919
C         17.16186        38.43445         1.05984
C         19.55887         4.17354         0.64104
C         20.82415         6.29247         0.41937
C         19.60392         5.60170         0.47780
C         20.86254         7.70247         0.37567
C         19.71137         8.47047         0.27334
C         20.93296        10.60643         0.06471
C         19.73305         9.91796         0.20703
C         20.97513        12.02599         0.01005
C         19.84199        12.78817         0.05428
C         21.02038        14.88016        -0.79312
C         19.94030        14.26772        -0.01671
C         20.99759        16.20869        -1.09116
C         19.81379        17.00623        -0.92167
C         21.03444        19.22249        -1.37894
C         19.82419        18.38883        -1.46546
C         20.98182        20.57087        -1.50364
C         19.73920        21.31799        -1.63409
C         20.95769        23.50106        -1.54973
C         19.72122        22.75083        -1.67673
C         21.01533        24.85172        -1.48855
C         19.81030        25.68218        -1.63701
C         20.97944        27.80076        -0.57120
C         19.79386        27.12462        -1.18555
C         20.95264        29.12994        -0.38875
C         19.73389        29.91062        -0.86388
C         20.81196        32.13857        -0.69675
C         19.68552        31.35718        -0.41355
C         20.81517        33.51323        -0.48232
C         19.68350        34.16243         0.04575
C         20.79768        36.39930        -0.03010
C         19.65311        35.61995         0.22479
C         20.76171        37.78721         0.07208
C         19.57002        38.42967         0.41592
O          4.60775         9.77174         1.86563
O         15.53466        24.41562        -2.72530
O         17.72506        25.61438        -2.86535
O         19.65816        14.96334         1.23528
O          1.05125        10.70181        -2.23396
O          1.60585         8.67738         2.45004
O          7.93815        16.96137         1.12582
O         15.55688        15.12650         1.98524
O         16.22726        11.35080         2.33504
O          3.30370        14.56039        -2.61758
O         19.08892        18.50565        -2.73417
O         15.54423        17.47774         1.11277
O         13.97882        27.56265        -1.65267
O         10.66117        33.92636        -0.84500
O         16.99855        33.48636         2.30760
O          2.47880        21.96821        -3.12164
O         12.93917        28.93655         1.76220
O          4.75854        17.85259         0.74435
O         16.96939        29.02458         1.41152
O         12.93932        22.47919         0.30786
O          3.44828        11.93931        -2.30489
O         19.98283        26.79188        -2.60026
O         14.03827        12.72795         2.34586
O          6.54083        23.11279         0.05140
O         11.03636        19.43682        -2.85483
O          1.01941        35.58714         3.48416
H          1.69401        36.06538         4.01278
O         12.49766        21.80033        -3.21156
H         11.59196        21.99542        -3.55980
O          0.55184        19.13432         0.11650
H          1.29196        19.54292         0.63329
O          8.74803        32.15374        -1.66236
H          9.48856        32.79601        -1.80522
O         16.80452        39.36237         0.02240
H         17.61794        39.80833        -0.28992
O          8.18197        19.76451        -2.97457
H          7.74739        20.39876        -3.58241
O         13.64287        18.61034        -3.01346
H         12.80731        18.95547        -3.41534
O         19.80448        29.96955        -2.31739
H         19.84375        29.05012        -2.66272
O         18.14198        13.02814         2.29573
H         17.54159        13.50732         2.90494
O         15.37514        25.14561         0.83208
H         14.68628        25.36541         1.49498
O          6.51972        14.90903        -2.42014
H          5.65696        14.85748        -2.88900
O          6.28888        25.02469        -3.02738
H          6.31862        25.97015        -3.28510
O          9.88706         4.53718         3.47908
H          9.11101         5.06637         3.76450
O          2.69789        18.50364        -2.85022
H          2.07672        17.92606        -3.34340
O          3.04079        19.65422         0.60416
H          3.49058        19.03807         1.23438
O         17.88959        12.31914        -1.25692
H         18.39631        11.74994        -1.87480
O          1.81505         7.56860        -0.88282
H          1.27174         8.10073        -1.49930
O         10.96345        24.28077         1.22076
H         11.64920        23.58498         1.36417
O         18.25406         7.76267        -1.45733
H         18.98045         7.19892        -1.80069
O          9.71034        10.42257         2.76264
H         10.54689        10.11289         3.17122
O          8.77128        19.91651         0.60946
H          8.58928        19.21748         1.27774
O          9.74871        21.66133        -3.40915
H          9.82359        20.79550        -3.87841
O          2.40526        33.27573         2.90673
H          1.71456        33.82802         3.35309
O         13.71368        37.22097         3.55787
H         12.97379        36.64424         3.84469
O         14.96239        30.73416         2.54785
H         15.72274        30.11759         2.66427
H          1.18395         2.62922         1.83573
H         -0.97045         3.88155         1.87272
H         -0.98078         6.35763         1.74896
H         -1.06050         8.41425         0.97219
H         -0.90240        10.06050        -0.65007
H         -0.98102        12.11366        -1.02073
H         -0.97610        14.52879        -1.16024
H         -0.83491        16.30998        -2.32850
H         -0.98361        18.74126        -2.33804
H         -1.00871        20.92825        -1.75956
H         -0.96909        23.27348        -1.83476
H         -1.01138        25.22796        -1.46098
H         -0.99993        27.57469        -0.81414
H         -0.97367        29.45734        -0.48943
H         -0.93961        31.80381         0.13009
H         -0.79358        33.76746         0.24748
H         -0.82032        36.01065         1.19143
H          0.35384        37.99667         2.12206
H          3.61982         2.62048         1.68668
H          2.48102        39.22156         1.94619
H          6.09947         2.61323         1.72809
H          4.93000        39.20533         1.96970
H          8.53375         2.62202         1.85636
H          7.37271        39.21600         1.97009
H         11.05733         2.60649         1.64304
H          9.84587        39.22628         1.98470
H         13.45595         2.56056         1.20341
H         12.26658        39.19987         2.19046
H         15.88077         2.50093         1.01712
H         14.75325        39.28083         1.71612
H         18.33542         2.42887         0.88050
H         17.39588        39.02762         2.00001
H         20.50599         3.61476         0.65441
H         21.76637         5.73068         0.48753
H         21.84501         8.18785         0.46167
H         21.88354        10.06197        -0.00055
H         21.96129        12.50944        -0.04329
H         21.85350        14.25510        -1.14426
H         21.84829        16.65376        -1.62669
H         21.99996        18.73659        -1.17455
H         21.92868        21.12305        -1.44387
H         21.90249        22.94862        -1.47192
H         21.98775        25.35639        -1.40244
H         21.86504        27.20652        -0.30095
H         21.81283        29.66046         0.04668
H         21.69751        31.66082        -1.13842
H         21.71366        34.08269        -0.75212
H         21.74500        35.92046        -0.30923
H         21.66852        38.37611        -0.12190
H         19.54393        39.52727         0.49415
