         490
 CSIRO Nanostructure Databank - Neutral Graphene Oxide Data Set
C         38.60012        50.04315         3.38198
C         37.44839        50.70393         3.81061
C         38.26037        52.74635         2.81871
C         37.27323        52.05842         3.52298
C         40.73867        48.52804         2.00118
C         40.88158        50.00081         2.28889
C         39.58860        50.71315         2.64480
C         40.43112        52.84661         1.58631
C         39.42514        52.08978         2.38973
C         40.70234        54.26662         1.91613
C         42.90624        48.54921         0.85971
C         41.74476        47.85819         1.40053
C         42.78326        49.98747         0.67172
C         41.71189        50.65769         1.19688
C         42.72911        52.84808         0.43913
C         41.54008        52.09658         0.90402
C         42.55405        54.34021         0.24465
C         41.72234        54.94031         1.36119
C         45.31625        45.77630         0.29237
C         44.23703        46.45962         0.72831
C         45.18024        48.60529        -0.11238
C         44.04527        47.87231         0.43681
C         45.13325        50.02297        -0.24665
C         43.78166        50.69648        -0.22572
C         45.07225        52.91106        -0.29630
C         43.85809        52.18738         0.04144
C         45.06454        54.34451        -0.24956
C         43.86275        55.05991         0.02263
C         45.05199        57.16220        -0.25041
C         43.87046        56.45011        -0.01321
C         47.67377        44.32620        -0.85252
C         47.61846        45.73237        -0.79949
C         46.27504        46.41787        -0.67833
C         47.54870        48.62161        -0.69979
C         46.35690        47.90755        -0.44343
C         47.52813        50.04957        -0.72956
C         46.28538        50.75043        -0.56726
C         47.45001        52.94193        -0.89341
C         46.25924        52.21525        -0.62137
C         47.47328        54.34776        -0.79186
C         46.27206        55.06826        -0.49478
C         47.50573        57.24307        -0.67432
C         46.26499        56.49972        -0.47145
C         47.54661        58.65187        -0.60162
C         50.08521        44.32221        -1.23760
C         48.89034        43.64229        -1.01359
C         50.03000        45.80401        -1.50681
C         48.78796        46.48498        -0.98515
C         49.98773        48.64099        -1.06602
C         48.77912        47.91226        -0.92478
C         49.95014        50.05867        -1.10289
C         48.73694        50.74992        -0.99628
C         49.96020        52.93683        -1.08619
C         48.67674        52.20722        -1.39452
C         49.91333        54.37139        -1.04218
C         48.71761        55.08386        -0.95898
C         49.92574        57.28103        -1.02121
C         48.71957        56.53930        -0.90515
C         49.95722        58.69436        -0.93905
C         48.73272        59.36350        -0.73719
C         52.65563        41.62372        -1.78661
C         51.42759        42.26578        -1.64251
C         52.57165        44.39035        -1.26202
C         51.34843        43.64688        -1.38497
C         52.54800        45.81580        -1.11562
C         51.30346        46.54561        -1.19401
C         52.48510        48.70340        -1.05322
C         51.26229        47.93459        -1.12666
C         52.47736        50.09364        -1.04773
C         51.21233        50.81180        -1.46760
C         52.40973        52.96255        -0.81458
C         51.16784        52.26401        -1.07157
C         52.42680        54.36538        -0.85295
C         51.19234        55.07123        -1.22071
C         52.45862        57.26508        -0.93678
C         51.19476        56.57231        -1.23774
C         52.45844        58.69361        -1.04109
C         51.23072        59.41207        -1.09826
C         52.51423        61.45907        -1.50578
C         51.29907        60.80535        -1.29900
C         55.23086        40.22335        -1.93946
C         55.14130        41.59351        -1.59929
C         53.86911        42.30642        -1.60457
C         55.02480        44.43579        -1.05111
C         53.82222        43.70984        -1.30069
C         54.99996        45.81841        -0.86488
C         53.76447        46.51014        -0.96271
C         55.03623        48.74630        -0.71053
C         53.76354        47.97781        -1.05952
C         54.86230        50.16050        -0.36910
C         53.66308        50.83106        -0.69560
C         54.79363        52.97916        -0.16534
C         53.62113        52.25744        -0.54723
C         54.77759        54.40177        -0.20545
C         53.61666        55.09178        -0.59947
C         54.87913        57.24482        -0.62217
C         53.62404        56.54347        -0.69595
C         54.91451        58.61267        -0.99218
C         53.70878        59.36324        -1.17885
C         55.01744        61.34311        -1.86119
C         53.73906        60.76041        -1.48477
C         55.22887        62.74244        -2.16669
C         57.50742        40.12258        -1.09599
C         56.41394        39.52567        -1.76590
C         57.43558        41.49121        -0.75397
C         56.30188        42.24318        -1.11059
C         57.38510        44.36139        -0.23613
C         56.36405        43.74987        -1.16565
C         57.36251        45.76021        -0.02281
C         56.32289        46.57271        -0.74958
C         57.17183        48.59149         0.53789
C         56.20523        47.98338        -0.20582
C         57.07442        50.06135         0.76399
C         55.95431        50.84864         0.21008
C         57.21734        52.95626         0.51235
C         55.97389        52.25749         0.24486
C         57.23392        54.44211         0.51037
C         55.97824        55.18220         0.16881
C         57.33280        57.25921        -0.34174
C         56.08215        56.58542        -0.29230
C         57.40128        58.58374        -0.85464
C         56.18420        59.21089        -1.24080
C         57.95223        61.51879        -1.69969
C         56.10086        60.46813        -1.91821
C         57.68428        62.92952        -1.60144
C         56.41647        63.44266        -2.04061
C         60.03295        37.31805        -0.86439
C         58.90612        38.05631        -1.20701
C         59.62416        39.91425         0.21595
C         58.68247        39.35879        -0.70829
C         59.70480        41.33351         0.50733
C         58.39296        42.07521         0.26490
C         59.54246        44.18602         0.85726
C         58.46268        43.57665         0.20163
C         59.29357        45.48083         1.33648
C         58.29475        46.34715         0.85409
C         59.64675        48.60326         1.38357
C         58.24730        47.81397         1.33566
C         59.66855        50.08460         1.11279
C         58.36292        50.83115         1.01554
C         59.72862        52.95762         0.87439
C         58.38963        52.27149         0.72469
C         59.70979        54.42188         0.48344
C         58.52271        55.14685         0.33956
C         59.79946        57.20501         0.01989
C         58.55510        56.53438         0.00789
C         59.87407        58.64206        -0.22577
C         58.77480        59.26352        -1.05691
C         59.71733        61.54655        -0.00440
C         58.76449        60.78365        -0.89444
C         59.86661        62.99954        -0.45274
C         58.75787        63.69023        -1.06697
C         59.94873        65.79431        -0.83964
C         58.81060        65.10929        -1.17777
C         62.19614        35.71627         0.18708
C         62.16652        37.09993         0.44493
C         60.90506        37.78042         0.14857
C         62.30543        39.98121         1.42846
C         60.56442        39.00444         0.74270
C         62.16500        41.39271         1.21205
C         60.86108        41.99207         0.97442
C         62.11486        44.27448         1.30363
C         60.89907        43.49794         0.67975
C         62.16278        45.76327         0.87071
C         61.12831        46.61625         1.55430
C         62.25446        48.69955         1.14189
C         60.96042        47.90894         1.18019
C         62.16687        49.98297         0.34748
C         60.85863        50.71791         0.40205
C         62.15679        52.92894         0.22267
C         60.81013        52.22243         0.06262
C         62.18621        54.29423         0.31089
C         60.95681        55.07309         0.35445
C         62.25086        57.19756         0.41234
C         60.99498        56.48133         0.25081
C         62.15888        58.65839         0.79260
C         60.98935        59.35844         0.13813
C         62.20016        61.50573         0.36339
C         61.04003        60.81321         0.09727
C         62.11397        63.00189         0.66374
C         61.01112        63.70024        -0.10408
C         62.31809        65.80912        -0.09512
C         61.10212        65.11503        -0.33964
C         62.40855        67.22951        -0.17858
C         64.61647        35.72019         0.23130
C         63.39305        35.03533         0.09151
C         64.63169        37.07892         0.57436
C         63.39180        37.78456         0.76385
C         64.70786        39.90512         1.20194
C         63.42539        39.19406         1.09954
C         64.66878        41.43423         1.22725
C         63.38349        42.15426         1.09972
C         64.66788        44.26717         0.98853
C         63.41904        43.55518         0.99915
C         64.69293        45.73540         0.93131
C         63.48979        46.46362         0.94145
C         64.67215        48.54920         0.51108
C         63.47847        47.86480         0.81197
C         64.64105        50.00557         0.31599
C         63.45377        50.70216         0.18928
C         64.61132        52.84531         0.67477
C         63.45502        52.19176        -0.08835
C         64.63551        54.33852         0.76973
C         63.48486        55.05324         0.06737
C         64.69867        57.24613         0.61688
C         63.44309        56.52049         0.44977
C         64.68628        58.63454         0.65684
C         63.46498        59.40315         0.59226
C         64.75122        61.57824         0.46969
C         63.45604        60.78669         0.51587
C         64.63443        62.97339         1.11783
C         63.44431        63.73004         0.57056
C         64.83932        65.77642         0.12206
C         63.50975        65.06081         0.27200
C         64.78592        67.26318         0.44566
C         63.55892        67.92548         0.12062
C         67.09965        32.84940        -0.07474
C         65.90884        33.52900         0.07370
C         67.18597        35.61156         0.16698
C         65.84206        34.99386        -0.28487
C         67.19348        37.11719         0.19097
C         65.97566        37.74187         0.87472
C         67.12554        39.96903         0.68191
C         65.95592        39.24506         0.81012
C         67.12712        41.42867         0.77217
C         65.92416        42.14463         0.93421
C         67.18051        44.26658         1.31331
C         65.88990        43.56899         0.94809
C         67.19149        45.77454         1.05630
C         65.90396        46.45854         0.77380
C         67.11921        48.52744        -0.10418
C         65.88980        47.83118         0.45593
C         67.12482        50.01508         0.17355
C         65.92406        50.69040         0.30863
C         67.18518        52.87183         0.62317
C         65.92961        52.11057         0.68830
C         67.20546        54.28353         0.77406
C         65.94019        55.05044         0.89427
C         67.17029        57.16875         0.81241
C         65.97363        56.52317         0.68956
C         67.18520        58.63051         1.17048
C         65.99524        59.37371         0.55712
C         67.22308        61.49715         1.04550
C         65.89545        60.78500         1.14533
C         67.22133        62.94952         1.44615
C         65.96353        63.68256         0.98984
C         67.21985        65.76182         0.91758
C         66.00502        65.04039         0.74465
C         67.15216        67.21238         1.30599
C         65.92905        67.95598         0.81215
C         67.12200        70.09769         1.15061
C         65.96897        69.39382         1.00047
C         69.51379        31.25289        -0.80016
C         69.49521        32.72138        -0.79309
C         68.29524        33.48562        -0.45863
C         69.65236        35.64157        -0.19048
C         68.34979        34.99191        -0.62194
C         69.67269        37.05870        -0.06281
C         68.37254        37.81019         0.01181
C         69.37639        40.08629        -0.12174
C         68.33171        39.27185         0.20889
C         69.63262        41.36145         0.62397
C         68.36763        42.18588         0.63800
C         69.70820        44.26925         0.77534
C         68.40713        43.54762         0.77802
C         69.73010        45.73250         0.59106
C         68.46778        46.48982         0.75864
C         69.60890        48.58519         0.20009
C         68.44003        47.88891         0.26699
C         69.60037        50.03864         0.04409
C         68.36625        50.73563         0.18256
C         69.61378        52.88009         0.21832
C         68.38225        52.16631         0.33644
C         69.62915        54.30050         0.38275
C         68.41799        54.98503         0.67790
C         69.66814        57.19615         0.60336
C         68.45886        56.43304         1.09844
C         69.65058        58.63189         0.58560
C         68.45291        59.36180         0.80974
C         69.67548        61.50762         0.67011
C         68.42437        60.79067         0.84108
C         69.67742        62.94416         0.72099
C         68.48102        63.65187         1.00623
C         69.66571        65.77375         0.60499
C         68.46286        65.06189         0.91971
C         69.54920        67.21815         0.31768
C         68.45741        67.96857         1.00921
C         69.64423        70.28237         0.45861
C         68.45466        69.45952         1.00088
C         69.24657        71.48016        -0.36211
C         71.93534        31.22996        -0.51316
C         70.68509        30.56508        -0.76610
C         72.00287        32.57464        -0.31826
C         70.84550        33.44395        -0.55507
C         72.01631        35.45994         0.35294
C         70.82420        34.85878        -0.08608
C         72.07721        36.83909         0.45736
C         70.96495        37.64641         0.15492
C         72.19531        39.88206         0.47605
C         71.24724        39.05977        -0.05610
C         72.11619        41.32417         0.29732
C         70.94900        42.03555         0.27577
C         72.09682        44.31017        -0.09366
C         70.99371        43.51531         0.45284
C         72.08093        45.66921        -0.04220
C         70.90214        46.40975         0.34323
C         72.08715        48.64417        -0.07377
C         70.92925        47.91974         0.56385
C         72.02541        49.96772        -0.32771
C         70.81298        50.73807        -0.10723
C         72.02688        52.92140        -0.14632
C         70.82997        52.17428        -0.04335
C         72.03003        54.30617        -0.02672
C         70.85084        55.03090         0.22690
C         72.00094        57.23582        -0.07632
C         70.83719        56.49345         0.26826
C         72.01436        58.61659        -0.03750
C         70.85669        59.35332         0.30067
C         72.05605        61.54296         0.14180
C         70.86085        60.80009         0.37334
C         72.06252        62.91881         0.15547
C         70.88161        63.66225         0.42477
C         72.04834        65.88193         0.03035
C         70.86497        65.10102         0.35719
C         72.01363        67.21876        -0.19911
C         70.74984        67.97495        -0.17737
C         71.60655        70.11267        -1.08215
C         70.71632        69.45952        -0.24100
C         71.38332        71.43445        -1.50657
C         70.14309        72.06081        -1.21585
O         61.17934        39.33131         1.95767
O         57.20488        60.84663        -2.69130
O         68.92108        68.69867         2.20067
O         51.27054        55.81086        -2.50222
O         69.69023        67.47581        -1.12024
O         59.80904        49.57897         2.48641
O         63.77731        54.99751        -1.32118
O         65.05220        52.24636         1.90153
O         70.26730        33.32675        -1.90110
O         65.06776        54.79423         2.07490
O         67.92910        46.45705         2.15258
O         57.44856        50.48845         2.11342
O         54.69567        48.46103        -2.11558
O         70.36801        39.64791        -0.99587
O         61.24759        49.94335        -0.79094
O         40.31034        52.49306         0.15185
O         64.79327        40.65256         2.47381
O         56.38905        55.00269         1.58395
O         70.63450        43.84500         1.85220
O         60.14654        45.99788         2.30869
O         61.68809        63.05105         2.07506
H         62.46310        62.72725         2.60038
O         59.15317        58.97758        -2.43765
H         58.49469        59.43383        -3.01287
O         60.42413        52.34201        -1.31843
H         61.06436        51.81230        -1.84464
O         63.71988        52.36223        -1.50327
H         63.71543        53.36313        -1.67557
O         59.18460        61.59574         1.35307
H         59.87027        62.04648         1.90363
O         65.06887        61.85417        -0.90602
H         65.42299        61.02275        -1.30695
O         67.25985        44.08385         2.75942
H         67.76849        44.85219         3.11269
O         64.36477        62.84557         2.55032
H         64.51803        63.72531         2.95672
O         70.29289        70.84144         1.65734
H         70.29135        70.12398         2.33193
O         48.57463        52.18219        -2.85786
H         49.42407        51.80471        -3.19319
O         56.83088        44.01787        -2.53094
H         56.92625        45.00328        -2.61486
O         67.40728        35.17979         1.53940
H         66.91501        35.80960         2.12694
O         68.25005        35.27429        -2.05357
H         68.97987        34.75847        -2.47624
O         43.28107        50.57579        -1.59901
H         42.48246        51.14107        -1.67380
O         57.66445        41.85376         1.54048
H         57.62106        40.88461         1.68947
O         65.13920        65.73730        -1.31560
H         64.35542        66.09084        -1.78753
O         69.78343        40.95207         2.03106
H         69.94402        41.78162         2.53775
O         65.65532        35.06451        -1.72572
H         66.54047        34.99909        -2.16473
O         60.12393        52.85154         2.26338
H         59.41896        53.24534         2.81888
O         51.22552        50.83935        -2.94660
H         51.38319        49.92151        -3.25785
O         41.78144        54.49758        -0.98646
H         40.98395        53.92025        -0.88475
O         62.48475        49.10965         2.52390
H         61.61374        49.40534         2.89211
O         62.00115        44.27596         2.73957
H         62.14925        43.36442         3.06752
O         49.89785        45.90285        -2.98839
H         49.02111        45.52686        -3.22157
O         45.66671        46.25845        -2.01148
H         44.85027        46.80309        -2.02740
O         57.76590        47.78043         2.68552
H         57.86518        48.69450         3.04519
O         65.53139        60.68914         2.54299
H         66.11016        60.00408         2.96041
O         67.11302        58.63680         2.63267
H         67.76573        57.95235         2.94279
O         61.90605        58.68800         2.24209
H         62.68190        58.28325         2.68510
O         66.98923        48.35903        -1.56219
H         67.61611        48.97974        -1.99061
O         66.29588        59.49160        -0.86808
H         66.12074        58.62152        -1.28682
O         68.59693        56.39850         2.58119
H         67.96816        55.71997         2.91339
O         41.70016        50.11307         3.50931
H         42.50459        49.56825         3.37319
O         56.81009        46.74297        -2.12586
H         56.14676        47.32648        -2.57495
O         67.18647        62.96100         2.92584
H         66.44564        62.35004         3.17135
O         61.81590        45.88902        -0.55773
H         62.64625        45.90424        -1.07970
O         66.18274        37.44305         2.32287
H         66.77156        38.13844         2.68957
O         66.99256        67.15147         2.75712
H         67.59703        67.83865         3.13222
O         71.10031        48.08496         2.00626
H         70.34203        47.64435         2.44739
O         61.09248        43.45914        -0.76328
H         61.05242        44.38887        -1.09668
H         38.72831        48.98315         3.64077
H         36.68433        50.15694         4.38005
H         38.12275        53.81303         2.59182
H         36.36584        52.58273         3.85266
H         39.85950        47.97712         2.36363
H         40.09830        54.73450         2.70842
H         41.66340        46.77080         1.25956
H         41.91404        55.97925         1.66926
H         45.43685        44.71581         0.55775
H         43.50372        45.95367         1.37283
H         45.00300        58.25867        -0.26313
H         42.93571        57.00765         0.13700
H         46.75346        43.74102        -0.72206
H         46.62340        59.22029        -0.42778
H         48.88951        42.54683        -0.91980
H         48.70483        60.45982        -0.67176
H         52.65588        40.54966        -2.01537
H         50.50750        41.67948        -1.77171
H         52.50709        62.53841        -1.71282
H         50.37397        61.39719        -1.34194
H         54.36789        39.70097        -2.37364
H         54.33115        63.34603        -2.37487
H         56.45815        38.47137        -2.06969
H         56.34280        64.53505        -2.16254
H         60.23443        36.37013        -1.38126
H         58.22029        37.64155        -1.95714
H         59.97261        66.88159        -0.98845
H         57.95182        65.65261        -1.59518
H         61.25378        35.17827         0.01605
H         61.50857        67.81201        -0.41658
H         63.38338        33.96977        -0.17118
H         63.51749        69.02334         0.12916
H         67.11088        31.76168         0.09506
H         65.00611        32.96671         0.35062
H         67.07479        71.18137         1.32945
H         65.01841        69.94720         1.03209
H         68.55969        30.70913        -0.84566
H         68.28722        71.97471        -0.15539
H         72.83365        30.61337        -0.36915
H         70.67850        29.46751        -0.82132
H         72.94383        33.01673         0.03749
H         72.92384        34.86732         0.52292
H         73.03681        37.32300         0.68712
H         72.99519        39.48723         1.11870
H         73.07083        41.87639         0.30922
H         72.95192        43.79036        -0.54956
H         72.96061        46.21775        -0.40510
H         73.04060        48.11807        -0.21928
H         72.91862        50.48167        -0.71121
H         72.98171        52.40893        -0.32303
H         72.99066        54.82900        -0.12385
H         72.92197        56.71340        -0.36544
H         72.94917        59.13521        -0.28723
H         72.99680        61.01860        -0.07085
H         73.00435        63.44272        -0.05435
H         73.02178        65.37324        -0.00430
H         72.95201        67.76782        -0.36453
H         72.45631        69.55686        -1.50744
H         72.09977        71.92188        -2.18111
H         69.88958        73.00465        -1.72018
