         621
 CSIRO Nanostructure Databank - Neutral Graphene Oxide Data Set
C          5.89642        31.67289        -0.17858
C          5.90012        33.03552        -0.24942
C          8.28945        27.43843         0.25532
C          8.20120        28.77597         0.61204
C          7.05820        29.54372         0.26770
C          8.21939        31.68163         0.66088
C          7.05229        30.94671         0.28170
C          8.24104        33.08306         0.56284
C          7.06505        33.79326         0.12287
C          8.21260        35.93985         0.45875
C          7.06062        35.18649         0.10463
C          8.19461        37.34866         0.34849
C         10.88340        23.35403        -0.61895
C         10.82877        24.70016        -0.18670
C          9.59278        25.39148        -0.11768
C         10.69675        27.33298         0.88424
C          9.51769        26.70858         0.34827
C         10.60844        28.64925         1.65055
C          9.32862        29.44285         1.31523
C         10.64409        31.65561         1.46409
C          9.35351        30.94861         1.26816
C         10.56178        33.13597         1.55099
C          9.39652        33.84160         0.95992
C         10.59276        36.02529         1.24147
C          9.39312        35.23142         0.88603
C         10.60179        37.51479         0.91953
C          9.34431        38.16661         0.41554
C         10.31798        40.36043        -0.22533
C          9.21076        39.55722         0.19636
C         10.64853        41.69041        -0.04827
C         13.33037        19.05600        -1.44695
C         13.04150        20.44436        -1.49643
C         12.00912        21.21014        -0.95516
C         13.32249        23.36624        -0.48088
C         12.08886        22.64177        -0.74663
C         13.27932        24.72891        -0.05218
C         12.03372        25.38145         0.19622
C         13.01373        27.35728         1.61680
C         11.90995        26.66099         0.85430
C         13.08018        28.83972         1.33906
C         11.88480        29.49613         1.47051
C         13.10148        31.66452         1.90129
C         11.81963        30.95892         1.60928
C         13.14370        33.16679         1.84756
C         11.85183        33.91658         1.70884
C         13.12250        36.04046         1.49239
C         11.89728        35.33962         1.34684
C         13.08946        37.55583         1.64276
C         11.94948        38.11834         0.81562
C         13.32363        40.06318         0.14696
C         12.18793        39.19921         0.02541
C         13.21693        41.43250        -0.43876
C         11.95694        42.25409        -0.36080
C         13.30091        44.37496        -0.52922
C         12.05429        43.62885        -0.48937
C         13.31498        45.78089        -0.57237
C         15.85623        14.91740        -1.91095
C         15.89030        16.33438        -1.84719
C         14.71454        17.09416        -1.80579
C         15.85877        19.23236        -1.22353
C         14.64009        18.50479        -1.56293
C         15.88297        20.57879        -0.83785
C         14.85127        21.51544        -1.15293
C         15.66103        23.21289         0.41594
C         14.59780        22.69753        -0.45434
C         15.65286        24.69997         0.75970
C         14.53146        25.44619         0.18626
C         15.80370        27.52354         0.60981
C         14.71792        26.80615        -0.02901
C         15.70541        28.87799         1.01569
C         14.35054        29.62668         0.95809
C         15.63044        31.66902         1.58150
C         14.38848        30.84478         1.88687
C         15.66945        33.15228         1.42837
C         14.34453        33.90504         1.23373
C         15.56809        36.09040         2.09920
C         14.33278        35.36468         1.62360
C         15.58683        37.54904         1.65372
C         14.43083        38.20097         1.31578
C         15.69754        40.29897         0.68314
C         14.45789        39.55755         0.76825
C         15.75148        41.52308         0.07781
C         14.53954        42.19372        -0.46278
C         15.79080        44.36810        -0.27551
C         14.51634        43.65726        -0.42941
C         15.83752        45.86134        -0.21677
C         14.51130        46.62814        -0.19206
C         15.80580        48.65366        -0.98157
C         14.60230        47.94634        -0.91200
C         15.84183        50.03250        -1.35015
C         18.26761        10.52949        -1.80730
C         18.25275        11.93085        -1.72937
C         17.03049        12.70451        -1.74051
C         18.32487        14.79230        -1.87490
C         17.01327        14.10246        -1.79288
C         18.42653        16.27299        -1.91133
C         17.17793        17.02345        -1.52049
C         18.39047        19.23491        -0.73181
C         17.14076        18.47118        -1.09208
C         18.19633        20.33105         0.23244
C         17.07086        21.19613        -0.19801
C         18.11608        23.17633         1.10996
C         17.00012        22.57923         0.35039
C         18.13520        24.57985         1.19462
C         16.95103        25.35405         0.94131
C         18.18579        27.43942         1.32348
C         16.98041        26.76324         0.95259
C         18.14135        28.83993         1.55002
C         16.87816        29.50594         1.51831
C         18.14122        31.70069         2.09360
C         16.86039        30.91635         1.97435
C         18.11406        33.19019         1.97071
C         16.92330        33.87023         1.79669
C         18.14829        36.09905         1.95381
C         16.86729        35.35845         1.74463
C         18.11983        37.58409         2.17939
C         16.84843        38.31927         1.82815
C         18.22570        40.35352         0.95420
C         16.91739        39.74308         1.30900
C         18.31828        41.51488         0.19787
C         17.05041        42.15403        -0.24339
C         18.31915        44.36172        -0.74379
C         17.02716        43.60776        -0.62072
C         18.29756        45.84387        -0.68842
C         17.10904        46.55342        -0.58964
C         18.26509        48.73835        -0.71155
C         17.07339        47.98372        -0.74443
C         18.23876        50.13669        -0.84516
C         17.03176        50.78634        -1.26632
C         18.32224        52.89217        -1.53649
C         17.11174        52.15955        -1.61571
C         18.35280        54.21690        -2.09421
C         20.73975         6.24062        -1.98672
C         20.72566         7.65953        -1.84046
C         19.51635         8.38676        -1.86880
C         20.74660        10.51011        -1.79718
C         19.49232         9.80113        -1.81435
C         20.73724        11.93520        -1.72042
C         19.52442        12.59957        -1.66241
C         20.75363        14.75908        -0.94494
C         19.51479        14.04857        -1.38042
C         20.82644        16.24072        -1.06063
C         19.77895        16.84389        -1.67821
C         20.81718        19.17517        -0.11319
C         19.68401        18.87799        -0.97572
C         20.67460        20.23613         0.77002
C         19.36346        20.91687         0.97273
C         20.58799        23.10238         1.46559
C         19.28628        22.33964         1.59787
C         20.59734        24.48027         1.42379
C         19.38691        25.27725         1.37665
C         20.63350        27.44084         1.59836
C         19.40874        26.69294         1.43389
C         20.61324        28.81715         1.79520
C         19.37672        29.56303         1.79743
C         20.63546        31.71426         1.99711
C         19.40617        30.96587         1.93003
C         20.58912        33.16436         2.15355
C         19.39512        33.86611         2.16304
C         20.66052        36.12510         2.55153
C         19.36910        35.34033         2.39318
C         20.69910        37.50163         2.02348
C         19.43965        38.28768         2.01722
C         20.75742        40.19090         0.81163
C         19.43992        39.55716         1.20328
C         20.78619        41.60143         0.36560
C         19.59022        42.19418        -0.03869
C         20.88754        44.38026        -0.55714
C         19.60321        43.59288        -0.58376
C         20.86283        45.86042        -0.59673
C         19.58557        46.53852        -0.90127
C         20.81598        48.76230        -0.43416
C         19.57792        48.06583        -0.78272
C         20.75869        50.19601        -0.14548
C         19.42027        50.93644        -0.50874
C         20.70334        53.13434        -0.73126
C         19.48355        52.32818        -0.93305
C         20.73231        54.48204        -1.46377
C         19.51779        54.96002        -2.17334
C         20.76292        56.94746        -2.93295
C         19.55590        56.25864        -2.75087
C         20.79351        58.31057        -3.24486
C         23.25153         3.55242        -2.78534
C         22.08404         4.13511        -2.28336
C         23.11854         6.26168        -1.58819
C         21.94904         5.52133        -1.93284
C         23.22895         7.66157        -1.67314
C         21.97211         8.38492        -1.75744
C         23.26492        10.49181        -1.81432
C         21.96284         9.78215        -1.78340
C         23.28317        11.98336        -1.81647
C         21.99528        12.77482        -1.91116
C         23.21562        14.75070        -0.91233
C         22.04277        14.05840        -1.10277
C         23.22362        16.16451        -0.50726
C         22.03563        16.94875        -0.60808
C         23.19714        18.78899         0.50762
C         22.02253        18.30672        -0.13881
C         23.15422        20.03707         1.31460
C         21.85328        20.79882         1.44198
C         23.14451        23.01628         1.55182
C         21.82743        22.30713         1.67312
C         23.12378        24.49690         1.79292
C         21.88556        25.21241         1.34043
C         23.20510        27.37769         1.69716
C         21.91252        26.70686         1.44393
C         23.18670        28.82700         1.95191
C         21.87634        29.56024         2.04758
C         23.11853        31.75824         1.96770
C         21.86304        31.03923         1.99067
C         23.14023        33.12384         2.10010
C         21.88396        33.79541         2.65367
C         23.21754        36.08772         2.37881
C         21.94510        35.33999         2.63094
C         23.22645        37.59992         2.35421
C         21.91361        38.37596         2.27691
C         23.28042        40.32233         1.23122
C         22.02379        39.52231         1.26767
C         23.22035        41.74542         0.87150
C         22.06060        42.31419         0.40355
C         23.33370        44.53435         0.12543
C         22.14057        43.70024        -0.11787
C         23.31042        45.91587        -0.23048
C         22.04251        46.58749        -0.50052
C         23.27885        48.73913        -0.44024
C         22.04472        48.05140        -0.49830
C         23.31451        50.20727        -0.29379
C         22.04734        50.98038        -0.11025
C         23.26248        53.00098        -1.11434
C         22.05813        52.52246        -0.28006
C         23.21983        54.31945        -1.69652
C         22.02804        55.02127        -1.89407
C         23.30170        56.97052        -2.83069
C         22.04098        56.14240        -2.91557
C         23.26242        58.35448        -3.07592
C         22.01401        59.03531        -3.32510
C         23.23384        61.13875        -3.58301
C         22.02849        60.41906        -3.58250
C         24.51045         4.15730        -2.97810
C         25.79521         6.34863        -2.64107
C         24.89140         5.34411        -2.30382
C         25.73012         7.68393        -2.08607
C         24.50200         8.30684        -1.67236
C         25.74460        10.54446        -1.58571
C         24.49002         9.76844        -1.27586
C         25.73874        11.95187        -1.44747
C         24.50803        12.68510        -1.37776
C         25.71880        14.73361        -0.83339
C         24.48676        14.04254        -1.05475
C         25.71818        16.07988        -0.36086
C         24.45151        16.76989        -0.12343
C         25.68314        18.72226         0.86756
C         24.41976        18.07778         0.43161
C         25.70641        20.15357         1.12642
C         24.46448        20.76386         1.59500
C         25.70402        22.98817         1.94306
C         24.43144        22.26553         1.60217
C         25.71342        24.48391         1.97187
C         24.41149        25.24824         1.88981
C         25.68139        27.41691         1.58627
C         24.41668        26.71560         1.65392
C         25.73822        28.81818         1.63860
C         24.44344        29.56006         1.61748
C         25.68832        31.75270         1.89768
C         24.39235        31.04446         1.65118
C         25.69003        33.20234         1.68744
C         24.37093        33.86971         1.71484
C         25.70511        36.04205         1.69465
C         24.39593        35.37077         1.78644
C         25.65489        37.50568         1.52132
C         24.51062        38.29511         2.05335
C         25.74167        40.39738         1.53740
C         24.53313        39.73411         1.71229
C         25.74322        41.87012         1.44681
C         24.44276        42.55483         1.10140
C         25.75252        44.61160         0.51859
C         24.50707        43.92718         0.56763
C         25.76229        45.95706         0.04215
C         24.52503        46.62555        -0.23885
C         25.74080        48.76489        -0.57807
C         24.53019        48.05871        -0.44800
C         25.74976        50.17980        -0.79505
C         24.54862        50.90373        -0.70042
C         25.69189        52.83985        -1.65076
C         24.47999        52.27472        -1.10098
C         25.54786        54.05425        -2.34772
C         24.43323        54.88753        -2.26269
C         25.76422        57.04985        -2.56588
C         24.52374        56.28714        -2.62176
C         25.68893        58.44463        -2.76135
C         24.48259        59.10765        -3.05395
C         24.43973        60.50782        -3.31532
C         26.91169         8.46473        -2.15371
C         28.16763        10.59927        -1.95127
C         26.95848         9.86342        -1.87624
C         28.20143        11.98940        -1.68191
C         26.96538        12.67375        -1.41793
C         28.18183        14.77705        -1.04776
C         26.95322        14.06274        -1.10515
C         28.18040        16.13563        -0.63297
C         26.95308        16.74455        -0.22568
C         28.23727        18.85171         0.28324
C         27.02395        18.05506         0.43305
C         28.24577        20.28251         0.58193
C         26.93047        20.93575         1.02530
C         28.32740        22.99467         1.84850
C         27.00998        22.24332         1.75818
C         28.25792        24.46447         1.63984
C         26.96590        25.13774         1.47178
C         28.16873        27.41999         1.00710
C         26.89010        26.66147         1.22178
C         28.18507        28.88153         1.22782
C         26.96379        29.53335         1.50300
C         28.20001        31.75395         1.38410
C         26.99002        30.99251         1.75593
C         28.14866        33.16990         1.33088
C         26.88791        33.88475         1.51692
C         28.12334        36.03374         1.19509
C         26.87854        35.33970         1.45127
C         28.15297        37.48886         1.00806
C         26.89891        38.25783         1.18889
C         28.21875        40.38499         1.45722
C         26.96960        39.69946         1.45148
C         28.21942        41.83147         1.30200
C         27.02933        42.54506         1.17314
C         28.19905        44.61889         0.56237
C         26.99183        43.93984         0.78719
C         28.20590        45.98107         0.13450
C         26.99394        46.63775        -0.12490
C         28.27556        48.79730        -0.51179
C         27.01893        47.99251        -0.77735
C         28.23720        50.17495        -0.85217
C         27.00207        50.86437        -1.06220
C         28.24383        52.96485        -1.52732
C         26.98019        52.22359        -1.47628
C         28.35717        54.38964        -1.65248
C         27.38979        55.17684        -2.29759
C         27.04368        56.52377        -2.16502
C         29.40663        12.73507        -1.68726
C         30.61811        14.86721        -1.35992
C         29.41879        14.11506        -1.37507
C         30.62945        16.22682        -0.97712
C         29.41149        16.85904        -0.56954
C         30.65935        18.95520        -0.10100
C         29.42991        18.22913        -0.14194
C         30.70011        20.27507         0.47140
C         29.54448        20.93304         0.84241
C         30.84520        23.06433         1.16360
C         29.66763        22.22939         1.63931
C         30.84850        24.52934         1.40241
C         29.49783        25.24470         1.53089
C         30.73874        27.47358         1.12668
C         29.48729        26.67822         1.08045
C         30.66128        28.87465         1.03736
C         29.41535        29.58869         1.12285
C         30.56292        31.78595         0.73324
C         29.40086        31.04594         1.10563
C         30.51287        33.19127         0.64526
C         29.33486        33.89648         0.99724
C         30.57265        36.08789         1.02687
C         29.32220        35.34904         1.01908
C         30.66441        37.42844         1.35442
C         29.46239        38.24323         1.20653
C         30.70030        40.39933         1.72678
C         29.42862        39.68379         1.50694
C         30.70481        41.85368         1.40261
C         29.50602        42.47964         1.13241
C         30.73749        44.67395         0.65028
C         29.46820        43.86903         0.63224
C         30.53763        46.11542         0.71831
C         29.44404        46.74878         0.16626
C         30.75636        48.83745        -0.44144
C         29.48894        48.15794        -0.19420
C         30.70059        50.18305        -0.82873
C         29.47631        50.89056        -0.95933
C         29.43846        52.27209        -1.23622
C         31.83158        16.99294        -0.99291
C         33.06447        19.10794        -0.65278
C         31.85945        18.32397        -0.56687
C         33.15141        20.38050        -0.12957
C         32.04729        20.90840         0.76468
C         33.31064        23.14661         0.85169
C         31.98088        22.42706         0.78313
C         33.20161        24.63555         0.62371
C         32.01379        25.31229         0.93218
C         33.15068        27.43802         0.56936
C         31.97304        26.74320         0.92350
C         33.17015        28.91230         0.55930
C         31.90450        29.66335         0.84811
C         32.91073        31.74696        -0.05643
C         31.81397        31.09608         0.44158
C         32.91031        33.21359        -0.46069
C         31.66682        33.95209         0.08142
C         33.01267        36.19788         0.29678
C         31.73019        35.42315         0.39734
C         33.13835        37.48603         0.97521
C         31.98713        38.04013         1.77616
C         33.29790        40.32278         1.56947
C         31.98415        39.60194         1.82444
C         33.29168        41.83466         1.38944
C         32.00030        42.61182         1.44556
C         33.29387        44.68330         0.49559
C         32.04515        44.07824         1.09567
C         33.35678        46.00133        -0.02583
C         32.39123        47.02985         0.19590
C         32.04227        48.15200        -0.54632
C         34.31471        21.17414        -0.35081
C         35.58830        23.25895        -0.18654
C         34.40898        22.50760         0.02742
C         35.62516        24.64553         0.04380
C         34.37964        25.34903         0.30568
C         35.58300        27.50906         0.05512
C         34.35020        26.76321         0.26233
C         35.57481        28.89099        -0.12395
C         34.20016        29.50298        -0.38272
C         35.43562        31.78165        -0.41071
C         34.14976        31.01847        -0.42435
C         35.42131        33.22945        -0.06926
C         34.24201        33.91576        -0.09257
C         35.57488        36.09598         0.17637
C         34.27615        35.40423        -0.01401
C         35.63678        37.40318         0.53927
C         34.49419        38.07227         1.26561
C         35.60743        40.25962         0.65253
C         34.46129        39.57277         1.06516
C         35.57196        41.67625         0.44154
C         34.43548        42.45373         0.67523
C         34.38557        43.81816         0.28089
C         36.82949        25.38818        -0.00614
C         38.03524        27.54736         0.14077
C         36.83140        26.78978         0.06470
C         38.05903        28.93392         0.04178
C         36.79954        29.64245        -0.21524
C         37.85880        31.86349        -0.61101
C         36.71986        31.04333        -0.36864
C         37.97259        33.18014        -0.20911
C         36.74189        33.92273         0.27277
C         38.09066        36.03447         0.01700
C         36.78186        35.34298        -0.31171
C         38.10437        37.40310         0.22402
C         36.88717        38.15109         0.40500
C         36.83976        39.53203         0.41712
C         39.31978        29.60247         0.37402
C         40.69694        31.77202         0.26220
C         39.70229        30.80551        -0.15462
C         40.49758        33.12269         0.13286
C         39.25375        33.84548        -0.10168
C         39.27362        35.24082         0.04035
O         23.51342        11.20600        -3.06713
O         15.29295        23.66281         1.73515
O         17.11481        17.35962        -0.08955
O         31.34298        40.06394         3.04709
O         28.88579        37.96737        -0.15215
O         23.58372        24.94043         3.08799
O         24.92517        42.49482         2.50047
O         16.93167        42.60574        -1.65345
O         31.55639        46.83264         1.33052
O         19.03197        43.82312        -1.91161
O         15.83415        32.23823         0.25585
O         21.80013        43.78846        -1.55424
O         23.80225        19.97028         2.62577
O         27.40057        21.07846        -0.37935
O         10.94927        33.69126         2.84880
O         19.84936        50.64752         0.88565
O         16.68152        39.47151         2.72903
O         33.54238        36.09416        -1.08981
O         25.91898        37.90862         0.13088
O         28.83131        26.94096        -0.20502
O         19.67365        47.37306        -2.09665
O         24.20014         5.55889        -1.07615
O         23.86478        22.71292         0.30709
O         22.82406        50.60439         1.08301
O         13.67994        26.83066         2.48744
O         20.47273        54.39512        -0.02571
O         34.72513        31.50230        -1.68466
O         17.38753        31.21162         3.28750
O         22.61305        29.11479         3.27339
O         24.33486        30.34221         0.36204
O         18.36329        20.04360         1.65165
O         26.51665        17.97806         1.82040
O         30.26437        44.07858        -0.60470
O         10.36274        37.03875         2.30531
O         13.19717        32.50043         3.12781
O          8.89761        30.21343         2.48217
O         31.23454        34.94180        -0.90825
O         19.80133        14.26647         0.06802
O         18.42351        15.51441        -3.16457
O         24.11380        38.04565         3.44139
O         26.66877        25.70190         0.13775
O         13.96519        41.58506        -1.68074
O         27.71085        22.31686         3.03129
O         17.50912        22.34010        -1.03872
O         33.66164        41.23169         2.66627
O         17.64095        35.85578         0.59668
O         21.68038        21.35894         2.77081
O         22.87038        39.34698         0.11309
O         26.57868        54.44873        -3.20008
O         22.00569        25.99384         0.11821
O         38.94419        31.25945        -1.25332
O         11.25517        39.58230        -0.93769
O         20.07023        39.28143        -0.10543
O         18.75704        38.19752         3.32411
O         19.94885        18.15007        -2.13952
O         26.42257        31.32257         3.08994
O         32.05423        43.66908         2.48567
O         15.99037        45.07473         1.03032
O         25.75967        23.72277         3.19967
O         24.06857        34.69676         0.51602
O         32.97263        29.50318         1.87515
O         19.78778        35.80058         3.71353
O         30.36694        24.99120         2.69979
O         22.83262        35.71852         3.74632
O         14.00766        21.19837        -2.21387
O         24.33016         9.78771         0.18394
H         25.06975         9.27719         0.57633
O         14.02261        33.90805        -0.18898
H         14.56467        33.19401        -0.60767
O         12.87296        37.82685         3.05619
H         11.93936        37.55576         3.24570
O         33.78503        29.04346        -1.69757
H         34.17190        29.67303        -2.34921
O         15.51916        36.08730         3.55493
H         14.75573        36.64638         3.82717
O         36.69814        35.19599        -1.74882
H         36.46210        36.06289        -2.13860
O         14.23277        46.97243         1.21185
H         14.65949        46.26773         1.75556
O         14.56418        30.30629         3.20669
H         14.32965        31.00445         3.85818
O         32.17035        37.63187         3.18117
H         31.73640        38.33395         3.72647
O         32.41943        20.52625         2.12990
H         31.67398        20.83383         2.71032
O         32.81670        33.24110        -1.89619
H         32.53875        34.15515        -2.14096
O         10.52704        28.27894         3.04215
H         10.08622        29.02497         3.51128
O         33.73576        22.98346         2.24347
H         33.56907        22.03585         2.47643
O         34.80845        37.84062         2.68379
H         33.95800        37.87253         3.19164
O         19.05815        22.15787         3.02243
H         18.55372        21.31979         3.13542
O         30.12093        21.79399         2.96352
H         29.31686        21.70115         3.53182
O         21.86380        33.41370         4.05976
H         22.35333        34.10455         4.56364
O         36.80564        34.06264         1.71347
H         36.91532        33.17576         2.11390
O         13.87681        27.50002        -0.86254
H         13.20971        26.88333        -1.23248
O         14.15195        30.14788        -0.37078
H         14.16022        29.39065        -0.99854
O         27.06756        47.71717        -2.23179
H         27.85753        47.15925        -2.39805
O         21.90470        13.26258        -3.28837
H         22.33683        12.57873        -3.85214
O         22.06536        55.46534        -4.22684
H         22.95929        55.07462        -4.33677
O         22.31059        53.08591         1.02374
H         22.78248        52.39504         1.54742
O         21.68315        39.04879         3.53718
H         21.63097        38.36942         4.24383
H          5.00156        31.10261        -0.46671
H          5.00636        33.57855        -0.58902
H          7.42578        26.95165        -0.22216
H          6.18035        29.01595        -0.13509
H          6.15216        35.72057        -0.21132
H          7.24792        37.82165         0.04452
H          9.93680        22.84330        -0.84988
H          8.67680        24.88640        -0.45804
H          8.20021        39.99358         0.24633
H          9.90033        42.37415         0.38074
H         12.49884        18.34912        -1.30091
H         11.09564        20.70620        -0.60464
H         11.12616        44.22008        -0.45562
H         12.35039        46.30893        -0.63096
H         14.87166        14.43007        -1.98793
H         13.76096        16.56496        -1.95888
H         13.66162        48.46917        -1.14166
H         14.90668        50.53285        -1.64072
H         17.31896         9.97375        -1.85331
H         16.07550        12.15687        -1.74839
H         16.21672        52.66527        -2.00600
H         17.43433        54.60283        -2.56077
H         19.79432         5.71195        -2.17920
H         18.56516         7.83713        -1.93337
H         18.60416        56.75671        -2.99373
H         19.84373        58.85857        -3.34465
H         23.12942         2.54840        -3.22312
H         21.15684         3.54752        -2.36445
H         23.21653        62.21847        -3.78716
H         21.08027        60.94006        -3.77771
H         25.19773         3.71171        -3.71178
H         26.55909         6.15501        -3.40855
H         26.61704        59.03383        -2.71293
H         25.37680        61.08271        -3.30617
H         27.84037         7.97118        -2.47684
H         29.10320        10.07271        -2.19093
H         29.23433        54.87320        -1.19590
H         27.75586        57.22112        -1.69852
H         30.35492        12.22679        -1.91641
H         31.56297        14.37993        -1.64259
H         31.63901        50.71971        -1.03348
H         30.38639        52.83049        -1.26150
H         32.76056        16.51801        -1.34133
H         33.91919        18.69142        -1.20780
H         34.20813        46.23354        -0.68548
H         32.74263        48.53319        -1.30572
H         35.15124        20.71847        -0.90492
H         36.48873        22.75026        -0.56450
H         36.46687        42.16013         0.02135
H         35.27872        44.23124        -0.21375
H         37.78561        24.85180        -0.09985
H         38.98192        27.00828         0.29528
H         39.06548        37.93027         0.33211
H         37.75664        40.11194         0.23433
H         39.95828        29.11156         1.12423
H         41.64715        31.41629         0.68999
H         41.34586        33.77106         0.40980
H         40.23675        35.74477         0.21960
