         404
 CSIRO Nanostructure Databank - Neutral Graphene Oxide Data Set
C          1.46807         1.96874        -0.12782
C          1.38974         3.35483         0.18530
C          2.63100         1.25634         0.00833
C          2.50172         4.07983         0.58847
C          1.31584         6.29670         0.51614
C          1.29739         7.65465         0.50076
C          2.54075         5.52992         0.58539
C          2.53604         8.42769         0.34463
C          1.33447        10.63686         0.15728
C          1.33677        11.97893        -0.02689
C          2.54464         9.91297         0.44508
C          2.61756        12.76210        -0.08244
C          1.34223        15.00916        -0.07153
C          1.35487        16.35977         0.06542
C          2.44189        14.18059         0.44173
C          2.52557        17.07992         0.51974
C          2.55001        18.51724         0.32175
C          3.76775         1.82149         0.71685
C          3.71823         3.35835         0.99172
C          5.09338         1.17753         0.63395
C          4.99392         4.07770         1.10212
C          3.75771         6.19079         0.78049
C          3.83163         7.65448         0.57007
C          4.97428         5.46191         1.05519
C          5.03195         8.41236         0.97284
C          3.73711        10.61888         0.66968
C          3.78929        12.03516         0.55553
C          4.93807         9.90130         1.25842
C          4.98628        12.77603         0.81769
C          3.69608        14.91808         0.89437
C          3.68394        16.38606         0.84413
C          4.98915        14.20111         0.87557
C          4.94517        17.08499         1.10810
C          3.69363        19.24296         0.38423
C          4.95313        18.64350         0.84064
C          6.26069         1.81652         0.89869
C          6.28786         3.29258         1.34892
C          7.50657         1.03665         1.00634
C          7.47198         4.12159         0.82474
C          6.19619         6.25708         1.34783
C          6.21967         7.72878         1.21075
C          7.53122         5.53071         1.27478
C          7.48006         8.40576         1.33784
C          6.23125        10.61107         0.90995
C          6.24153        12.09770         0.99380
C          7.50388         9.85677         1.06122
C          7.43665        12.79072         1.11523
C          6.20210        14.92052         0.96443
C          6.21738        16.35869         1.00618
C          7.45281        14.22454         1.06392
C          7.42946        17.06777         0.95080
C          6.23116        19.19989         0.45882
C          7.41816        18.48824         0.63767
C          8.64032         1.48312         0.34221
C          8.46068         3.66956         0.01605
C         10.01232         1.23101         0.51047
C          9.78587         4.30881        -0.16139
C          8.72375         6.34041         1.01474
C          8.71643         7.71969         1.25437
C          9.87442         5.72605         0.35068
C         10.02368         8.48389         1.44286
C          8.77005        10.60625         1.15609
C          8.70438        12.06327         1.51281
C          9.97031         9.94687         1.07264
C          9.97366        12.81104         1.20682
C          8.67731        14.94468         1.13743
C          8.69485        16.38071         1.03096
C          9.91563        14.20064         1.20273
C          9.92349        17.12045         0.97207
C          8.64966        19.11930         0.32272
C          9.89544        18.50924         0.51598
C         11.08555         2.08295         0.04137
C         11.03046         3.50861        -0.19400
C         12.34139         1.44970        -0.07330
C         12.25305         4.24442        -0.35949
C         11.21461         6.32347         0.54136
C         11.28087         7.77073         0.93395
C         12.32519         5.67324        -0.17346
C         12.42504         8.54046         0.40672
C         11.21111        10.66442         0.89703
C         11.21005        12.09000         0.99430
C         12.39576         9.96873         0.47692
C         12.42963        12.78454         0.78031
C         11.15519        14.95674         1.33832
C         11.15549        16.40914         1.16659
C         12.50711        14.20096         1.13065
C         12.41585        17.01448         1.25743
C         11.02911        19.26617         0.05429
C         12.34977        19.04140         0.46116
C         13.51498         2.13260        -0.46517
C         13.48072         3.56490        -0.58507
C         14.72737         1.44661        -0.65492
C         14.67994         4.29159        -0.85745
C         13.50334         6.40534        -0.36186
C         13.52453         7.85250        -0.15376
C         14.68634         5.71964        -0.80670
C         14.67093         8.59860        -0.57999
C         13.53207        10.70461         0.02217
C         13.56799        12.14342         0.20582
C         14.64003        10.01431        -0.53430
C         14.71974        12.89768        -0.11337
C         13.66966        14.98545         0.72040
C         13.64504        16.39732         0.84081
C         14.78420        14.30587         0.15171
C         14.78131        17.18175         0.43975
C         13.56658        19.34977        -0.14636
C         14.77518        18.60629         0.13698
C         15.90956         2.13035        -1.04177
C         15.88217         3.58198        -1.16416
C         17.09970         1.42239        -1.20360
C         17.04905         4.30352        -1.49213
C         15.88476         6.43803        -1.07919
C         15.88651         7.89621        -0.97086
C         17.04705         5.72058        -1.45246
C         17.07230         8.60103        -1.09896
C         15.77344        10.79394        -1.08565
C         15.76576        12.31902        -1.03964
C         17.09360        10.07047        -1.21916
C         17.14377        12.93771        -0.87302
C         15.96214        15.05177        -0.08306
C         15.99556        16.46152         0.15860
C         17.14154        14.38993        -0.67755
C         17.23298        17.15420         0.09987
C         15.99504        19.23931        -0.13301
C         17.25335        18.57390        -0.00678
C         18.29073         2.06174        -1.74567
C         18.25489         3.56664        -1.94759
C         19.58415         1.36947        -1.60598
C         19.60486         4.28277        -2.09749
C         18.30319         6.44089        -1.75390
C         18.31654         7.92776        -1.50694
C         19.58756         5.73943        -1.69129
C         19.60361         8.57404        -1.14110
C         18.35903        10.82060        -1.13408
C         18.35564        12.23614        -1.02410
C         19.61436        10.08501        -0.97379
C         19.65447        12.92335        -0.92895
C         18.47008        15.09206        -0.57844
C         18.48942        16.33429         0.28480
C         19.71232        14.29547        -0.67908
C         19.79230        17.11029         0.15999
C         18.45805        19.29350        -0.11679
C         19.75967        18.65518         0.02280
C         20.76908         2.06198        -1.40542
C         20.72938         3.54816        -1.38168
C         21.99483         1.42356        -1.10471
C         22.01985         4.30345        -1.28669
C         20.80292         6.45219        -1.61231
C         20.85320         7.87852        -1.46027
C         22.05452         5.74432        -1.60591
C         22.07397         8.58479        -1.52570
C         20.90177        10.77482        -1.18328
C         20.89082        12.19374        -1.10123
C         22.09074        10.05341        -1.44190
C         22.13158        12.89185        -1.16031
C         20.95968        14.99703        -0.60400
C         20.99658        16.40515        -0.30995
C         22.16197        14.30448        -0.89296
C         22.19355        17.12918        -0.41820
C         20.99039        19.29484        -0.40319
C         22.19688        18.58676        -0.41223
C         23.22318         2.13468        -0.98423
C         23.27332         3.54977        -1.20632
C         24.43517         1.45411        -0.74177
C         24.49454         4.22053        -1.35951
C         23.26705         6.42419        -1.72367
C         23.26918         7.84720        -1.76442
C         24.53380         5.60529        -1.98532
C         24.51394         8.54974        -2.12583
C         23.30159        10.78307        -1.67981
C         23.32170        12.18002        -1.51098
C         24.52860        10.05944        -2.13541
C         24.57369        12.96635        -1.65443
C         23.40491        15.01897        -0.86449
C         23.41918        16.42951        -0.65624
C         24.62037        14.33716        -1.11425
C         24.65190        17.13226        -0.68968
C         23.43337        19.26860        -0.54112
C         24.65891        18.57565        -0.60238
C         25.66564         2.13889        -0.76285
C         25.69230         3.52031        -1.14161
C         26.86587         1.46594        -0.37570
C         26.98037         4.21442        -1.30423
C         25.81712         6.35928        -1.67423
C         25.83350         7.77874        -2.07929
C         26.99663         5.70062        -1.37970
C         27.14093         8.51090        -1.99618
C         25.87032        10.78355        -2.16699
C         25.90160        12.25930        -1.88105
C         27.17835        10.03751        -2.03959
C         27.13667        12.89021        -1.37442
C         25.85772        15.00719        -1.03278
C         25.87252        16.41968        -0.79884
C         27.10558        14.27854        -1.10272
C         27.11433        17.11820        -0.68466
C         25.89032        19.25983        -0.59235
C         27.11879        18.55815        -0.58478
C         28.09749         2.11695        -0.31126
C         28.22761         3.48786        -0.85455
C         29.24756         1.50109         0.21652
C         29.42281         4.27705        -0.51076
C         28.25941         6.39407        -1.22941
C         28.30765         7.80498        -1.42751
C         29.45532         5.68194        -0.82475
C         29.50128         8.53927        -1.27545
C         28.36793        10.72470        -1.47822
C         28.33886        12.13526        -1.22710
C         29.55801         9.97201        -1.29124
C         29.53987        12.80794        -0.81534
C         28.31851        14.95894        -0.78248
C         28.32689        16.39417        -0.61970
C         29.50500        14.20951        -0.61072
C         29.55389        17.09857        -0.41402
C         28.34439        19.24332        -0.47240
C         29.56479        18.53836        -0.36946
C         30.47214         2.19905         0.33726
C         30.53560         3.61861         0.01342
C         31.62332         1.53141         0.78160
C         31.76967         4.32925         0.22426
C         30.68967         6.35476        -0.74720
C         30.75029         7.76265        -1.19192
C         31.86029         5.71326        -0.21463
C         32.05700         8.50119        -1.15614
C         30.81234        10.65807        -0.99317
C         30.78763        12.07584        -0.72929
C         32.04096         9.96297        -0.91534
C         31.99516        12.74155        -0.42526
C         30.69166        14.91881        -0.10503
C         30.75951        16.38714        -0.20733
C         31.99174        14.15183        -0.00290
C         31.98547        17.05925        -0.03697
C         30.79184        19.21110        -0.18687
C         32.00257        18.50220        -0.03969
C         32.85515         2.21413         0.94567
C         32.88857         3.63624         0.70366
C         34.01809         1.54342         1.36344
C         34.12034         4.35519         1.02660
C         33.10226         6.37397        -0.19225
C         33.28090         7.70497        -0.80253
C         34.22821         5.80986         0.54721
C         34.55293         8.45436        -0.53555
C         33.26902        10.62829        -0.58331
C         33.24494        12.05904        -0.38661
C         34.49975         9.92565        -0.43303
C         34.42642        12.76737        -0.04666
C         33.25018        14.91584         0.02078
C         33.22814        16.33497         0.07957
C         34.46436        14.19645         0.06456
C         34.45578        17.04784         0.17968
C         33.22972        19.18604         0.11603
C         34.45279        18.49000         0.22286
C         35.27960         2.20299         1.47153
C         35.36357         3.60872         1.25228
C         36.45423         1.49692         1.82287
C         36.61803         4.26634         1.23877
C         35.58267         6.40243         0.46057
C         35.68814         7.75813         0.10491
C         36.71904         5.67846         0.88580
C         36.91611         8.44630         0.23563
C         35.69204        10.57911        -0.03792
C         35.63642        12.01112         0.26234
C         36.92500         9.89117         0.12894
C         36.97529        12.77152         0.39132
C         35.70784        14.91417         0.19307
C         35.69430        16.34166         0.23341
C         36.96046        14.23719         0.21838
C         36.92439        17.06008         0.34611
C         35.67351        19.18534         0.36024
C         36.90773        18.49934         0.42935
C         37.69693         2.14798         1.86545
C         37.78516         3.52350         1.51093
C         38.88577         1.45239         2.30316
C         39.14583         4.11871         1.27639
C         37.99157         6.33488         0.90749
C         38.07071         7.71487         0.59350
C         39.18453         5.62358         1.26731
C         39.39092         8.35628         0.50233
C         38.16093        10.61110         0.24014
C         38.20036        12.00007         0.21814
C         39.44574         9.86813         0.25480
C         39.48468        12.71358         0.06228
C         38.16778        14.94897         0.22887
C         38.16368        16.36912         0.35541
C         39.46300        14.24806         0.09474
C         39.40010        17.08660         0.51603
C         38.12515        19.19549         0.56575
C         39.36174        18.51365         0.63093
C         40.08076         2.11450         2.47311
C         40.23001         3.47888         2.10290
C         41.41225         4.19775         2.32640
C         40.42045         6.28121         1.45169
C         40.55137         7.69333         1.11795
C         41.52714         5.54011         1.96573
C         41.71074         8.43228         1.29231
C         40.68446        10.58033         0.63241
C         40.72151        12.02301         0.47826
C         41.77389         9.83017         1.05191
C         41.86181        12.78638         0.67543
C         40.69973        14.95180         0.47601
C         40.65233        16.40379         0.61338
C         41.85219        14.20624         0.65738
C         41.82062        17.15776         0.81534
C         40.57476        19.23378         0.81917
C         41.77845        18.55802         0.91114
O         33.89877         5.47919         1.94940
O         39.58375        13.49742        -1.17104
O         19.98771        17.93293         1.32554
O         25.11907        10.53729        -3.38022
O         25.24069        12.97732        -2.96720
O         12.48003        18.33235         1.68019
O          8.33801         2.45324        -0.64517
O         18.00574         2.69546        -3.09703
O          6.87112        10.12144        -0.30354
O          3.36876         8.00553        -0.79999
O          2.72444        14.33726         1.85163
O         27.87455         3.58270        -2.28217
O         16.22923        10.39502        -2.41717
O         31.53343         8.03160        -2.43849
O         25.12043         7.99098        -3.34243
O         31.15334        14.39720         1.19301
O         36.20928        12.35171         1.57340
O         39.63413         8.92028        -0.83863
O         11.98482        14.51630         2.45895
O         34.29221         7.84300        -1.86364
O         11.62068         6.69893         1.90107
O         19.59330         9.15990         0.20272
O         18.24252         7.42002        -2.87446
O          6.89487         5.81699         2.56936
O          3.48445         2.36588         2.04008
O         17.72341        15.19290        -1.80934
O         27.48947         9.23396        -3.21373
O          9.70440         5.44546        -1.09656
O          4.90270        18.06471         2.17890
O         21.12202         4.08711        -0.09433
O          4.81315        10.02178         2.71084
H          3.89892         9.78152         2.96896
O         15.32283        12.77557        -2.36138
H         15.71040        12.14426        -3.01339
O         24.54605         5.34875        -3.41948
H         24.69944         6.21970        -3.86228
O         19.95905         4.28087        -3.50471
H         19.32229         3.67912        -3.96154
O         18.46465        15.82993         1.65471
H         18.76197        16.57018         2.23198
O          8.62658        12.02930         2.99262
H          9.43036        11.57251         3.32355
O          2.95335        12.93138        -1.50471
H          3.07289        12.03621        -1.88826
O          6.47938         3.18750         2.78157
H          6.50191         4.10916         3.13955
O         39.47786         3.73723        -0.12929
H         40.35678         4.12605        -0.32963
O         10.16409         8.55509         2.89847
H         10.59144         7.71229         3.18083
H          0.59930         1.49944        -0.61118
H          0.45603         3.87823        -0.06259
H          2.73653         0.26442        -0.45467
H          0.36098         5.75784         0.58861
H          0.33993         8.18301         0.60828
H          0.38497        10.08671         0.09695
H          0.39411        12.49937        -0.24749
H          0.50943        14.52244        -0.59909
H          0.50471        16.95272        -0.30370
H          1.61834        18.99797        -0.01183
H          5.11467         0.11227         0.35429
H          3.70325        20.29694         0.06908
H          7.52834         0.14893         1.65639
H          6.26172        20.18712        -0.02642
H         10.31561         0.32164         1.05158
H          8.62135        20.15964        -0.03452
H         12.40136         0.36472         0.09842
H         10.83103        20.05528        -0.68704
H         14.75812         0.35457        -0.52869
H         13.61513        20.12616        -0.92408
H         17.13964         0.35481        -0.94179
H         15.99206        20.31046        -0.38224
H         19.57608         0.27144        -1.53358
H         18.42506        20.35809        -0.38895
H         22.01500         0.32632        -1.02712
H         20.97986        20.36418        -0.65917
H         24.42051         0.37456        -0.53382
H         23.43831        20.36842        -0.52975
H         26.79379         0.42213        -0.03569
H         25.89801        20.35828        -0.53534
H         29.19533         0.45138         0.54185
H         28.34814        20.34179        -0.41928
H         31.57238         0.45403         0.99733
H         30.80441        20.31047        -0.15596
H         33.96666         0.46441         1.57057
H         33.23331        20.28589         0.13387
H         36.39264         0.42268         2.05081
H         35.66523        20.28440         0.40387
H         38.79790         0.39269         2.58294
H         38.11292        20.29317         0.63789
H         40.94144         1.58951         2.91466
H         42.26211         3.69638         2.81335
H         42.48399         6.04952         2.13995
H         42.61422         7.95184         1.69260
H         42.72351        10.33524         1.27804
H         42.81185        12.29216         0.92212
H         42.80036        14.71255         0.88512
H         42.79507        16.65667         0.88732
H         40.54094        20.32954         0.89944
H         42.71338        19.11585         1.06027
