         204
 CSIRO Nanostructure Databank - Neutral Graphene Oxide Data Set
C        -11.03415         0.62897         0.61997
C         -9.81650         1.39806         0.50855
C         -8.58939         0.67942         0.27445
C         -7.37758         1.40575         0.10566
C         -6.15156         0.69380        -0.08602
C         -4.95448         1.42326        -0.39269
C         -3.76751         0.64981        -0.93602
C         -2.47139         1.40618        -0.80153
C         -1.25994         0.75073        -0.65722
C         -0.01634         1.47623        -0.50768
C          1.14014         0.76590        -0.09698
C          2.31429         1.53942         0.33824
C          3.53554         0.82618         0.85492
C          4.84157         1.48681         0.59018
C          6.05346         0.77147         0.64480
C          7.27364         1.38129         0.26089
C          8.46189         0.57747         0.04124
C          9.62479         1.22433        -0.53714
C         10.72816         0.38485        -0.94262
C         -9.79145         2.78576         0.63679
C         -8.57878         3.53195         0.50393
C         -7.36312         2.82794         0.18199
C         -6.15651         3.54197        -0.04427
C         -4.97694         2.81192        -0.42743
C         -3.80018         3.57419        -0.91470
C         -2.50899         2.83817        -1.11258
C         -1.20373         3.61482        -1.10244
C          0.02237         2.88663        -0.69860
C          1.24069         3.58405        -0.55753
C          2.41259         2.93156        -0.11901
C          3.65074         3.60066        -0.02092
C          4.85849         2.86761         0.23540
C          6.10940         3.53562         0.05177
C          7.30854         2.77760        -0.00059
C          8.54388         3.43220        -0.35122
C          9.67610         2.60613        -0.65421
C         -8.52676         4.92282         0.70050
C         -7.31515         5.64642         0.56449
C         -6.12297         4.96463         0.13708
C         -4.92339         5.70722        -0.03003
C         -3.74896         5.06219        -0.64824
C         -2.43545         5.74789        -0.56701
C         -1.26550         5.07541        -0.84010
C          0.00083         5.81469        -0.92795
C          1.31067         5.02229        -0.85351
C          2.52699         5.75037        -0.48842
C          3.70386         5.02029        -0.22350
C          4.95341         5.70479        -0.17861
C          6.15848         4.95321        -0.13125
C          7.41365         5.62237        -0.28743
C          8.58698         4.83196        -0.43730
C         -7.24626         7.04008         0.83262
C         -6.04728         7.75022         0.72137
C         -4.85619         7.07863         0.28252
C         -3.61349         7.80907         0.16047
C         -2.41568         7.15861        -0.22433
C         -1.17920         7.88021        -0.22952
C          0.04180         7.22659        -0.53673
C          1.28168         7.89617        -0.43623
C          2.52336         7.16787        -0.46232
C          3.76200         7.85589        -0.31684
C          4.98011         7.12332        -0.26891
C          6.24738         7.79823        -0.28217
C          7.42876         7.04703        -0.33162
C         -5.97483         9.16257         1.01168
C         -4.80472         9.85256         0.89640
C         -3.57891         9.20648         0.48727
C         -2.37660         9.92030         0.42461
C         -1.15235         9.28309         0.08665
C          0.08240         9.97764         0.05850
C          1.30344         9.31186        -0.17444
C          2.56451         9.98642        -0.14145
C          3.77320         9.29114        -0.23613
C          5.06008         9.94714        -0.21630
C          6.23121         9.24190        -0.26680
C        -11.03363        -0.73347         0.52334
C         -9.81097        -1.47988         0.33350
C         -8.58755        -0.73804         0.21045
C         -7.35057        -1.44585         0.09168
C         -6.14269        -0.71454        -0.00598
C         -4.84133        -1.41455         0.23503
C         -3.65787        -0.75443        -0.41112
C         -2.45497        -1.43176        -0.48229
C         -1.21437        -0.68899        -0.61158
C          0.00802        -1.34764        -0.54486
C          1.21094        -0.64847        -0.19744
C          2.41076        -1.37081         0.12752
C          3.40548        -0.69619         1.06149
C          4.76410        -1.38482         1.19618
C          6.06103        -0.63617         1.12271
C          7.41202        -1.35954         1.23926
C          8.48081        -0.78350         0.32505
C          9.60271        -1.61193        -0.06259
C         10.69705        -0.96365        -0.76255
C         -9.78474        -2.87638         0.28488
C         -8.56156        -3.60098         0.14424
C         -7.33993        -2.87747         0.06713
C         -6.08322        -3.58871        -0.02463
C         -4.88349        -2.89503         0.00194
C         -3.58446        -3.62280         0.18300
C         -2.38577        -2.86628        -0.32254
C         -1.21104        -3.55418        -0.58568
C          0.03743        -2.79648        -0.78356
C          1.34912        -3.52270        -0.58743
C          2.49028        -2.76749        -0.01802
C          3.62822        -3.51939         0.38569
C          4.77754        -2.90656         1.16631
C          6.13387        -3.47480         0.72081
C          7.33016        -2.87121         1.05018
C          8.68966        -3.58893         1.21443
C          9.65730        -2.96301         0.22368
C         -8.53315        -5.02628         0.09874
C         -7.32925        -5.74497        -0.03232
C         -6.08382        -5.03584        -0.10315
C         -4.86559        -5.74018        -0.27556
C         -3.62269        -5.04422        -0.29266
C         -2.41926        -5.69405        -0.58968
C         -1.18056        -4.99069        -0.62531
C          0.07497        -5.69361        -0.61803
C          1.28912        -4.98537        -0.41302
C          2.49239        -5.66820        -0.16207
C          3.67128        -4.91769         0.17932
C          4.92866        -5.61462         0.20425
C          6.06880        -4.79437         0.17524
C          7.87731        -5.90015         0.50280
C          8.68157        -5.10886         1.25692
C         -7.30645        -7.17887        -0.08023
C         -6.11977        -7.88916        -0.23472
C         -4.87048        -7.17992        -0.38071
C         -3.67874        -7.88161        -0.58986
C         -2.44185        -7.13749        -0.87102
C         -1.11715        -7.88729        -0.86675
C          0.11865        -7.12314        -0.60857
C          1.32656        -7.81220        -0.42534
C          2.55059        -7.09226        -0.24193
C          3.80778        -7.76614        -0.13777
C          5.00393        -7.05518         0.06614
C          6.23031        -7.79779         0.40560
C          7.47803        -7.27750         0.70186
C         -6.07416        -9.33191        -0.27352
C         -4.89444       -10.00861        -0.40476
C         -3.63417        -9.31573        -0.54399
C         -2.41076        -9.99965        -0.53311
C         -1.14443        -9.33569        -0.56436
C          0.06084        -9.97838        -0.33019
C          1.32463        -9.27545        -0.34603
C          2.51965        -9.94250        -0.22742
C          3.84229        -9.25210        -0.42650
C          4.97533        -9.92556         0.29555
C          6.07386        -9.23471         0.64503
O          4.14217        -9.38206        -1.86615
H          3.41080        -8.94787        -2.35495
O         -4.59784        -1.24393         1.71350
H         -5.43923        -1.47379         2.16552
O         -4.00820         0.52302        -2.38571
H         -3.79890         1.38814        -2.80119
O          0.88429        -3.14139        -1.93324
O          2.65659         1.51256         1.80861
O         -1.77811        -7.52764        -2.12571
O          7.88285        -1.02573         2.58118
H          7.08993        -1.08347         3.16705
O         -4.08390         4.51824        -1.98598
O          2.79539        -0.93010         2.36787
H          2.42948        -0.05675         2.65802
O          0.75718         5.45943        -2.13691
O          7.17402        -5.24712        -0.54308
O          4.62313        -3.36359         2.53896
H          4.00584        -2.73202         2.97367
O         -3.38213        -3.70177         1.65617
H         -3.56005        -2.78758         1.99569
O          5.37009        -0.82819         2.41110
O         -1.81241         3.17314        -2.36368
O          9.23029        -3.25506         2.52000
H          9.04224        -2.29949         2.70659
H         11.54228        -1.58651        -1.09032
H         11.59653         0.85985        -1.42266
H         10.59564         3.08341        -1.02562
H          9.54408         5.32920        -0.65579
H          8.39657         7.56673        -0.40071
H          7.19285         9.77657        -0.27086
H          5.08467        11.04645        -0.17614
H          2.57734        11.07958        -0.01353
H          0.09050        11.05812         0.26715
H         -2.37227        10.99208         0.67404
H         -4.77261        10.92754         1.12810
H         -6.89209         9.67772         1.33318
H         -8.15912         7.56818         1.14713
H         -9.44126         5.46250         0.98942
H        -10.72619         3.32786         0.84617
H        -11.97922         1.16823         0.78298
H        -11.97800        -1.29132         0.60984
H        -10.72767        -3.43783         0.36853
H         -9.48319        -5.57812         0.16142
H         -8.25811        -7.72550         0.00480
H         -7.01842        -9.88761        -0.17341
H         -4.88839       -11.10874        -0.40161
H         -2.41950       -11.09416        -0.41381
H          0.07302       -11.06288        -0.14245
H          2.52257       -11.04128        -0.15586
H          4.91714       -11.01041         0.46918
H          6.91999        -9.75475         1.12089
H          8.21759        -7.95770         1.15430
H          9.24884        -5.55298         2.08740
H         10.54268        -3.53990        -0.08459
