         260
 CSIRO Nanostructure Databank - Neutral Graphene Oxide Data Set
C         30.41348        31.81010        -0.75972
C         30.47376        32.90048        -0.14106
C         30.78628        35.81904         1.06054
C         30.61712        37.03895         1.33882
C         30.60250        40.02458         1.79482
C         30.70233        41.20118         2.18823
C         32.54181        29.04253        -2.09018
C         31.47809        29.75818        -1.95490
C         32.74446        31.79855        -1.55325
C         31.37763        30.99846        -1.37679
C         32.86336        32.94320        -0.48288
C         31.60566        33.88640        -0.42508
C         33.00048        35.85392         0.35441
C         31.81820        35.03431         0.53373
C         32.89824        37.25855         0.36016
C         31.49462        37.92929         0.42973
C         32.84818        40.18173         0.83854
C         31.53634        39.38493         0.86003
C         32.96480        41.47294         1.56751
C         31.85635        42.05131         2.21541
C         33.18016        43.97314         2.55641
C         32.08753        43.38176         2.70372
C         35.25916        27.23824        -1.03742
C         34.63086        28.49646        -0.79583
C         33.76385        29.34763        -1.46949
C         35.35186        31.57346        -1.14931
C         34.01892        30.87464        -1.46794
C         35.36198        33.09462        -1.08233
C         34.09327        33.81280        -0.75276
C         35.27676        36.02716        -0.80118
C         34.26564        35.17448        -0.08324
C         35.23726        37.48261        -0.55002
C         34.02239        38.11484         0.04055
C         35.24217        40.29690         0.00298
C         34.05747        39.46625         0.35527
C         35.45097        41.60177         0.71955
C         34.29488        42.14787         1.56937
C         35.57142        44.29546         1.73098
C         34.40362        43.58554         1.95972
C         35.85168        45.63283         2.12693
C         37.79107        27.33374        -0.64457
C         36.38559        26.81277        -0.72275
C         37.69005        28.74664        -0.07914
C         36.53939        29.59674        -0.15833
C         37.94049        31.57493        -0.61546
C         36.56154        30.92171        -0.55681
C         37.89072        33.10848        -0.45614
C         36.63605        33.84095        -0.77297
C         37.71645        35.98987         0.03412
C         36.42384        35.23442        -0.19336
C         37.70160        37.44651        -0.16007
C         36.54670        38.14847        -0.39133
C         37.80018        40.38454        -0.49235
C         36.51270        39.61721        -0.48132
C         37.78216        41.85657        -0.25478
C         36.58235        42.48584         0.36025
C         37.85990        44.59518         0.67000
C         36.69247        43.75748         0.94148
C         37.97835        45.91292         1.11691
C         36.86004        46.32969         1.90492
C         40.14094        24.52204        -0.14883
C         39.06268        25.11381        -0.34998
C         40.05131        27.14743         0.69273
C         38.80158        26.49024         0.11413
C         40.11844        28.65586         0.82781
C         38.84299        29.41260         0.53579
C         40.18495        31.61173         0.66694
C         38.87042        30.91836         0.42559
C         40.18487        33.10723         0.66732
C         38.81502        33.81037         0.56480
C         40.19755        36.01338         0.41265
C         38.88856        35.30705         0.25693
C         40.26884        37.45519         0.00731
C         39.00112        38.18180        -0.24090
C         40.34721        40.39010        -0.16904
C         39.02139        39.66969         0.09745
C         40.29591        41.85352        -0.16019
C         39.09979        42.51119        -0.05085
C         40.22936        44.77849        -0.40498
C         38.99115        43.99066        -0.08489
C         40.25736        46.24847        -0.10272
C         39.09058        46.79142         0.72166
C         40.56040        48.65508         1.31316
C         39.52822        47.99430         1.43696
C         42.70709        24.54909        -0.33505
C         41.47882        24.96566         0.05496
C         42.65454        27.16518         0.56874
C         41.37063        26.36134         0.90622
C         42.73113        28.64429         0.73132
C         41.43094        29.39017         0.79434
C         42.68102        31.57872         0.86457
C         41.45975        30.84788         0.32406
C         42.70669        33.08799         0.70505
C         41.45743        33.77474         0.15527
C         42.78571        35.95186         0.09938
C         41.50130        35.26341         0.44572
C         42.80863        37.44528         0.03809
C         41.54453        38.23767         0.18694
C         42.88315        40.42336        -0.03781
C         41.53251        39.70597        -0.12814
C         42.83827        41.89167        -0.46466
C         41.59817        42.64149         0.00093
C         42.68101        44.81882        -0.91762
C         41.49698        44.05729        -0.50632
C         42.68214        46.29591        -0.61877
C         41.57381        46.94361        -0.15555
C         42.95765        48.89097         0.34417
C         41.52971        48.57145         0.16140
C         43.61048        25.59382        -0.19278
C         45.23098        27.07238         1.30761
C         44.06419        26.13562         1.10898
C         45.19063        28.60201         1.19404
C         43.92383        29.30510         0.81575
C         45.19438        31.51767         0.46822
C         43.95503        30.80204         0.93957
C         45.23207        33.01009         0.26015
C         43.99692        33.82860         0.53205
C         45.25047        35.86523        -0.32734
C         43.94942        35.24434         0.06331
C         45.25677        37.31305        -0.72415
C         43.97625        38.11469        -0.63756
C         45.27960        40.32603        -0.97892
C         44.00111        39.62023        -0.73426
C         45.21905        41.77208        -1.18789
C         43.95320        42.53588        -0.90928
C         45.31668        44.73885        -1.39836
C         43.94291        44.02745        -1.21722
C         45.25224        46.27830        -1.08170
C         43.99926        47.01469        -0.78183
C         43.94320        48.31854        -0.11467
C         47.64687        27.29879         1.23102
C         46.63031        26.60143         1.22387
C         47.85864        28.74109         1.29632
C         46.48336        29.40930         1.19022
C         47.79056        31.51938         0.37800
C         46.49326        30.76121         0.52978
C         47.72860        33.00580         0.19952
C         46.55209        33.69696         0.16681
C         47.79061        35.97648         0.02727
C         46.48353        35.21735         0.32683
C         47.80438        37.42775        -0.34794
C         46.54890        38.09383        -0.84482
C         47.89233        40.32075        -1.03528
C         46.55578        39.58900        -1.10477
C         47.87764        41.82058        -1.09247
C         46.54989        42.54374        -1.21344
C         47.57445        44.59620         0.05839
C         46.42736        43.95056        -0.68703
C         47.42907        46.06151         0.03571
C         46.53656        46.69666        -0.52513
C         50.42124        28.95713         1.17373
C         49.09138        29.49642         0.98973
C         50.29708        31.70295         0.93097
C         49.06098        30.86787         0.83885
C         50.30652        33.05250         0.28624
C         49.01151        33.69430        -0.14118
C         50.33774        35.92995        -0.15517
C         49.04243        35.19172        -0.28705
C         50.30846        37.34971        -0.10880
C         49.13386        38.08174        -0.77857
C         50.19884        40.30100        -0.08399
C         49.08830        39.61442        -0.45933
C         50.40306        41.76691        -0.55135
C         49.09513        42.58871        -0.63317
C         50.02971        44.27521         0.92208
C         48.92170        43.96334        -0.00377
C         51.51966        29.52977         1.10743
C         52.77347        31.77169         0.67404
C         51.86299        30.91372         1.45444
C         52.71788        32.93412         0.26853
C         51.57407        33.71766        -0.31262
C         52.63563        36.02101         0.28006
C         51.54196        35.19085        -0.00811
C         52.56331        37.27314         0.46494
C         51.45055        38.09836         0.24378
C         52.64267        40.33893         0.37323
C         51.35915        39.54592         0.61400
C         52.60446        41.59939         0.40726
C         51.54742        42.48121         0.23514
C         51.15240        43.71341         0.74257
O         37.84080        41.26982        -1.62862
O         38.93351        26.65356         1.53180
O         48.18524        41.03305        -2.28253
O         44.58313        47.00824        -2.11251
O         44.97566        32.08738        -0.86303
O         49.32482        43.81335        -1.39038
O         35.36147        41.34632         2.17333
O         49.30028        38.01261        -2.12933
O         39.17449        47.02251        -0.71984
O         38.81640        39.73863         1.48854
O         39.21834        44.46717        -1.45786
O         40.86837        35.69127         1.67566
O         43.07158        44.41466        -2.31564
O         48.94868        34.32312        -1.45440
O         43.35427        33.70973         1.84074
O         45.27387        36.23445        -1.72792
O         34.58306        33.77049        -2.11713
O         35.40164        34.96849         0.94888
O         45.03175        27.87815         2.47719
O         39.79907        37.70591        -1.36738
O         40.31507        32.36147         1.90680
O         31.82169        40.25283        -0.25240
O         43.56930        38.78220        -1.87040
O         47.19829        30.76127        -0.74391
O         43.24028        31.20262         2.14835
O         40.74917        29.13150         2.05358
O         46.49222        43.96451         0.78487
O         46.64388        38.59229        -2.19872
O         37.72377        33.76507        -1.74525
O         42.38744        37.96800         1.36198
O         47.92460        37.03845         1.04910
O         35.55147        40.19982        -1.40899
O         34.97576        31.16829        -2.53253
O         38.33823        30.32245         1.61567
O         45.87780        42.24121        -2.43179
O         35.09501        36.86365        -1.92879
O         47.19249        29.32344         2.45599
O         50.24242        32.90554         1.75054
O         35.26116        29.13045         0.25523
O         43.13947        26.81990        -0.78878
O         43.93875        25.29139         2.16736
H         44.29631        25.70632         2.97931
O         32.64489        32.33889        -2.86168
H         33.54943        32.33295        -3.26530
O         38.57685        31.30147        -1.88250
H         38.27269        31.99339        -2.51611
O         45.65638        44.67783        -2.77927
H         44.87570        44.97564        -3.29766
O         51.96920        31.08989         2.81056
H         51.98850        32.04832         3.01385
O         43.24254        40.47811         1.37942
H         42.96609        39.61076         1.78204
O         38.30255        27.41293        -1.98377
H         37.64722        27.85564        -2.56240
O         38.13586        33.66389         1.82162
H         38.74695        33.21287         2.45333
O         51.09025        39.61650         2.01499
H         51.64065        38.95241         2.48166
O         50.88860        41.63735        -1.89023
H         50.14769        41.30034        -2.45184
O         41.56647        30.85040        -1.12324
H         42.38146        30.37911        -1.40126
O         46.21501        35.33503         1.75009
H         46.74364        36.08804         2.10501
O         31.39654        34.47239        -1.68423
H         31.58310        33.81299        -2.39778
O         41.46854        33.65557        -1.28173
H         41.47019        32.69879        -1.53318
O         41.78564        42.80543         1.45484
H         42.21251        41.97221         1.78678
O         40.99171        49.20784        -0.94203
H         40.10239        48.82489        -1.12587
O         41.43582        26.04500         2.28965
H         40.51949        25.87170         2.60240
O         51.51370        33.51899        -1.71533
H         52.10277        34.15932        -2.16422
O         30.98431        37.87559        -0.88387
H         30.44568        38.67285        -1.06833
O         33.04065        32.28546         0.77667
H         33.02210        32.94494         1.50257
