         346
 CSIRO Nanostructure Databank - Neutral Graphene Oxide Data Set
C          1.21510         1.95881         0.87209
C          1.11380         3.30255         0.67695
C          2.44825         1.25218         0.66558
C          2.30420         4.03715         0.10019
C          1.16295         6.29514         0.42342
C          1.14615         7.73185         0.47209
C          2.29449         5.56646         0.18356
C          2.28830         8.48156         0.35329
C          1.18175        10.63963        -0.05935
C          1.25887        11.96388        -0.56490
C          2.33923         9.94231         0.31426
C          2.41109        12.70035        -0.44751
C          1.41733        14.74990        -1.65230
C          1.52737        16.04517        -2.05524
C          2.57423        13.99102        -1.15778
C          2.72880        16.82163        -1.85615
C          2.77783        18.20921        -2.21152
C          3.65386         1.94248         0.57660
C          3.56160         3.45444         0.80093
C          4.89029         1.30346         0.30825
C          4.83900         4.11973         0.32464
C          3.55491         6.30305        -0.10378
C          3.56236         7.79943         0.05877
C          4.86149         5.55735        -0.08017
C          4.80677         8.47398         0.56486
C          3.58179        10.64580         0.43055
C          3.44295        12.16182         0.53717
C          4.82825         9.97458         0.59989
C          4.77350        12.92450         0.62561
C          3.84820        14.79584        -0.91043
C          3.82236        16.24779        -1.19089
C          4.80097        14.32056         0.11139
C          4.95045        17.05428        -0.85553
C          3.88045        18.98150        -1.94046
C          5.01391        18.42493        -1.26313
C          6.14075         1.97909         0.30885
C          6.05519         3.37478         0.84095
C          7.35510         1.39709        -0.06271
C          7.53213         4.34610        -0.87683
C          6.15000         6.30660         0.00296
C          6.08310         7.66955         0.60617
C          7.35940         5.73089        -0.30129
C          7.37092         8.41744         0.75971
C          6.05250        10.66217         0.70466
C          6.09853        12.14790         0.81874
C          7.34033         9.95190         0.79626
C          7.41942        12.81573         0.61762
C          5.75545        15.22336         0.50844
C          6.02876        16.48056        -0.13493
C          7.57714        14.20196         0.81191
C          7.30477        17.12311        -0.07582
C          6.18165        19.14948        -0.97275
C          7.33601        18.50835        -0.46572
C          8.60488         2.11541        -0.17235
C          8.64097         3.53630        -0.29596
C          9.83912         1.42507        -0.11699
C          9.85956         4.24708        -0.16311
C          8.62844         6.41092        -0.01106
C          8.61267         7.75437         0.38992
C          9.84238         5.67042        -0.05745
C          9.88514         8.48694         0.72377
C          8.61582        10.64784         0.45591
C          8.60060        12.09820         0.31240
C          9.80591         9.97403         0.45378
C          9.79889        12.80866         0.03367
C          8.63578        14.95762         0.25518
C          8.56073        16.42158         0.09992
C          9.77814        14.21777        -0.11668
C          9.76240        17.13366        -0.09186
C          8.56644        19.22479        -0.37942
C          9.76179        18.55621        -0.19763
C         11.07819         2.10416        -0.20208
C         11.09788         3.53377        -0.19901
C         12.32343         1.39745        -0.20779
C         12.32746         4.26167        -0.39731
C         11.15075         6.33998         0.29428
C         11.04388         7.83910        -0.05351
C         12.33104         5.63440        -0.34512
C         12.34063         8.58485         0.09206
C         11.10512        10.73334         0.64765
C         11.08052        12.11677         0.03393
C         12.35192         9.95165         0.27625
C         12.25609        12.76077        -0.23714
C         10.97917        14.92773        -0.59557
C         11.00962        16.42660        -0.48808
C         12.27995        14.17720        -0.68496
C         12.32354        17.11996        -0.39168
C         11.05226        19.34444        -0.18348
C         12.32137        18.51890        -0.21481
C         13.54543         2.05364        -0.39427
C         13.54594         3.49454        -0.86556
C         14.77579         1.38502        -0.29131
C         14.84379         4.21814        -0.56595
C         13.53752         6.41682        -0.67579
C         13.56731         7.90351        -0.36185
C         14.84327         5.68169        -0.76080
C         14.85906         8.56790        -0.07852
C         13.58647        10.66700         0.25650
C         13.53043        12.13876         0.20646
C         14.82703         9.98911         0.18827
C         14.80920        12.89699         0.14008
C         13.58009        14.95421        -0.73620
C         13.55559        16.41891        -0.45477
C         14.91747        14.19934        -0.64468
C         14.77958        17.10798        -0.22630
C         13.53946        19.19842        -0.11311
C         14.75928        18.51208        -0.09092
C         16.02028         2.07669        -0.29920
C         16.02534         3.54068        -0.36372
C         17.22427         1.38799        -0.18472
C         17.28663         4.24547        -0.14025
C         16.12460         6.43905        -0.46335
C         16.06066         7.87400        -0.09949
C         17.31410         5.65804        -0.07502
C         17.30817         8.54177         0.18193
C         16.05202        10.69864         0.33062
C         16.07800        12.13612         0.29199
C         17.29950         9.98560         0.36471
C         17.24670        12.84671         0.44588
C         16.09592        15.01837        -0.16311
C         16.05493        16.38412        -0.08372
C         17.39897        14.25346        -0.08141
C         17.29748        17.13763         0.12148
C         16.00972        19.33993         0.08839
C         17.30149        18.56089         0.06349
C         18.47968         2.06068        -0.00293
C         18.48865         3.51948         0.06771
C         19.64189         1.34464         0.16479
C         19.70274         4.20676         0.32934
C         18.50442         6.35036         0.26494
C         18.48876         7.79933         0.30275
C         19.70416         5.61329         0.45277
C         19.77032         8.50966         0.38835
C         18.47113        10.68579         0.66109
C         18.43624        12.13295         0.94330
C         19.75952        10.01158         0.57396
C         19.68271        12.91278         1.28151
C         18.55704        15.02270         0.50517
C         18.52591        16.46256         0.32501
C         19.68680        14.37518         0.94890
C         19.74623        17.19927         0.37168
C         18.49604        19.27336         0.05420
C         19.75240        18.61626         0.16266
C         20.93647         1.96690         0.59605
C         20.95504         3.48214         0.49660
C         22.14137         1.38416        -0.11138
C         22.16270         4.12908         0.61583
C         20.96138         6.28950         0.84251
C         20.99325         7.78937         0.83833
C         22.26237         5.57688         0.73266
C         22.27997         8.47134         0.68976
C         20.97813        10.65463         1.15530
C         20.99291        12.16184         1.34210
C         22.28262         9.91442         1.01475
C         22.28273        12.87015         1.08977
C         20.94735        15.13437         1.05734
C         20.97425        16.52706         0.59724
C         22.28222        14.36915         1.01061
C         22.20995        17.19722         0.49527
C         20.98982        19.30428         0.12418
C         22.21736        18.62512         0.25033
C         23.34646         2.00724        -0.00903
C         23.42333         3.31038         0.77265
C         24.56247         1.41534        -0.51397
C         24.66437         4.09577         0.46376
C         23.45693         6.25521         0.83206
C         23.49057         7.73700         1.20677
C         24.76491         5.50371         0.98509
C         24.77535         8.50206         0.83469
C         23.52176        10.66960         0.73224
C         23.28181        12.09229         0.24474
C         24.68378         9.96285         0.45466
C         24.55394        12.86309        -0.09154
C         23.46353        15.06796         0.50436
C         23.43696        16.45944         0.47404
C         24.65545        14.32433         0.13532
C         24.76135        17.16384         0.50498
C         23.46158        19.31201         0.14564
C         24.69641        18.64891         0.23005
C         25.79909         1.99293        -0.34440
C         25.92945         3.29727         0.40994
C         26.99785         1.36075        -0.80856
C         27.13929         4.09350        -0.00952
C         25.96450         6.23981         0.39616
C         25.99426         7.73457         0.42061
C         27.09888         5.54224         0.06420
C         26.95789         8.44677        -0.53514
C         25.87286        10.63474        -0.01314
C         25.83226        12.09465        -0.28850
C         27.07388         9.93725        -0.25980
C         27.08791        12.86416        -0.40468
C         25.85610        14.97194        -0.12785
C         25.84424        16.48171        -0.33543
C         27.07799        14.24570        -0.40204
C         27.15967        17.15420        -0.02437
C         25.92925        19.30509         0.20386
C         27.16064        18.56540         0.24937
C         28.22511         2.00582        -0.75421
C         28.27854         3.40668        -0.37877
C         29.44247         1.36523        -1.20081
C         29.59928         4.07015        -0.33791
C         28.33175         6.26361        -0.36826
C         28.30724         7.73345        -0.63440
C         29.64189         5.56997        -0.16762
C         29.56793         8.49955        -0.57413
C         28.28432        10.61402        -0.52944
C         28.28760        12.07696        -0.74608
C         29.53686         9.89698        -0.64193
C         29.60367        12.82474        -0.91723
C         28.25380        15.09317        -0.89040
C         28.34005        16.44092        -0.16767
C         29.69180        14.36030        -0.94752
C         29.57869        17.07880         0.14507
C         28.38525        19.21084         0.46494
C         29.59269        18.47348         0.47356
C         30.63495         2.02600        -1.30180
C         30.77281         3.41332        -0.93123
C         31.91203         4.15681        -1.16379
C         30.86761         6.29498        -0.55030
C         30.84938         7.77217        -0.20268
C         31.96309         5.57532        -0.94437
C         32.07157         8.54590        -0.59082
C         30.78735        10.63364        -0.63515
C         30.80694        12.04747        -0.55135
C         32.02788         9.89687        -0.67687
C         31.89080        12.72626         0.03568
C         30.75510        14.90448        -0.03415
C         30.79759        16.33093         0.21498
C         31.81695        14.08518         0.36006
C         31.98864        16.99155         0.55997
C         30.82829        19.10360         0.79070
C         32.00145        18.36996         0.82719
O          5.34285        12.70514         1.95062
O         28.89004        12.34040        -2.07690
O         18.76364        12.54191         2.35638
O         21.76452        14.94386         2.25079
O         28.28442         6.75354        -1.76653
O         13.37336         7.39211        -1.76081
O          4.83388         4.47159        -1.07754
O          6.62023        14.89246         1.56168
O         12.91206        14.50713        -1.97058
O          3.56753         7.21023        -1.27841
O         10.75807        15.75217        -1.78278
O         25.89083         8.28454         1.76979
O          7.48622         9.13995         2.03872
O         24.95908        12.45215        -1.44800
O         20.02066         9.40013        -0.74576
O         14.05495        12.91141         1.38764
O         21.55035        10.02232         2.32751
O          3.71862        13.94537        -2.09943
O         20.81298         7.04584         2.11763
O          5.23723         7.79102         1.79545
O         29.79679         4.70863         0.98620
O         27.89746        15.39697        -2.22490
O          6.72235         3.78965         1.77807
O         21.93864        12.44742         2.42576
O         15.69869         6.14280        -1.84790
O         25.59501        16.65907        -1.74378
H         26.37978        16.22086        -2.20002
O         10.09545         8.37706         2.17472
H          9.22268         8.63701         2.57448
O         26.31387         8.38085        -1.83398
H         26.82359         7.73360        -2.37804
O         25.02985         5.43478         2.43783
H         24.73044         6.30253         2.81766
O         30.82733         7.76706         1.28131
H         30.94179         8.69345         1.58288
O         23.43164         7.74605         2.67210
H         22.49802         7.52395         2.91726
O         15.27253        13.76998        -1.99647
H         14.45008        13.85197        -2.54417
O         11.40176         6.15197         1.71544
H         10.79677         6.75498         2.21633
O          2.31993         3.69384        -1.30162
H          3.15379         4.05537        -1.69100
O         26.18062         2.93770         1.83469
H         26.22087         3.79480         2.32691
O         10.67334         7.93929        -1.45246
H         11.48010         7.71122        -1.97920
O         23.49523         2.93714         2.19844
H         24.43688         2.66647         2.36302
O         13.44246         3.44454        -2.32475
H         14.28162         3.07704        -2.67380
O         25.22522        17.02094         1.88747
H         24.48844        17.27157         2.48388
O         30.23141        14.71413        -2.23655
H         29.42630        15.01314        -2.76437
O         17.85840        14.03877        -1.46643
H         17.05460        13.82885        -2.00729
O          2.80066        12.38746         1.83995
H          3.51243        12.29158         2.51541
O          3.41810         3.72049         2.21055
H          4.21649         3.39556         2.67803
O          6.98016         3.94972        -1.89377
O         11.07100        20.27990        -1.27497
H         11.07571        19.77051        -2.11143
O         16.03512        20.39879        -0.88218
H         16.06826        19.99626        -1.77405
O         11.18530        10.94729         2.09170
H         11.05460        10.06564         2.51600
O         21.07510         1.61611         2.01122
H         21.92846         2.01582         2.32490
O         22.54656        11.92068        -1.00597
H         23.22813        11.82170        -1.71686
H          0.32871         1.37954         1.17118
H          0.14775         3.80769         0.81787
H          2.43689         0.15335         0.61229
H          0.20929         5.78178         0.61001
H          0.18056         8.22094         0.66345
H          0.23445        10.09550        -0.17209
H          0.40262        12.34402        -1.14020
H          0.43251        14.26219        -1.67641
H          0.64360        16.56338        -2.45636
H          1.91142        18.64933        -2.72643
H          4.87422         0.22930         0.06199
H          3.90841        20.03662        -2.24829
H          7.36946         0.31542        -0.27467
H          6.23846        20.21682        -1.23332
H          9.83697         0.32788        -0.03347
H          8.57552        20.30735        -0.57242
H         12.31854         0.31250        -0.01937
H         11.06619        19.96665         0.75357
H         14.78202         0.29965        -0.10524
H         13.54058        20.29436        -0.02932
H         17.21440         0.28769        -0.16513
H         15.94290        19.84813         1.09138
H         19.60248         0.24463         0.13099
H         18.46260        20.36919        -0.03328
H         22.05933         0.40181        -0.60272
H         20.99243        20.39331        -0.03352
H         24.48552         0.44422        -1.02892
H         23.44939        20.39976        -0.02828
H         26.93034         0.34903        -1.23709
H         25.97063        20.40462         0.15351
H         29.38250         0.30762        -1.49789
H         28.40988        20.29154         0.66928
H         31.52091         1.49999        -1.68749
H         32.80071         3.66470        -1.58523
H         32.91081         6.08439        -1.17170
H         33.03716         8.02679        -0.66684
H         32.95545        10.45509        -0.87035
H         32.78426        12.16246         0.33943
H         32.65090        14.51875         0.93006
H         32.93845        16.44080         0.58980
H         30.83846        20.18052         1.01229
H         32.95251        18.86321         1.07104
