         244
 CSIRO Nanostructure Databank - Neutral Graphene Oxide Data Set
C          1.33587         1.96627        -0.04398
C          1.31411         3.37024         0.01012
C          2.52621         1.28476        -0.22319
C          2.49219         4.12305        -0.11409
C          1.31052         6.30922         0.14708
C          1.31262         7.70290         0.28273
C          2.49165         5.58237        -0.03761
C          2.49916         8.44283         0.25304
C          1.32398        10.61251         0.77587
C          1.35266        11.96921         1.09743
C          2.50230         9.89009         0.48925
C          2.56287        12.67912         1.13924
C          1.45331        14.90307         1.93010
C          1.48871        16.26871         2.01502
C          2.70977        14.08144         1.73836
C          2.67477        17.04569         1.80455
C          2.70192        18.44868         1.80537
C          3.74582         2.00371        -0.36132
C          3.72758         3.43388        -0.30286
C          4.97185         1.32418        -0.55359
C          4.95329         4.15774        -0.46304
C          3.73012         6.30237        -0.13182
C          3.73084         7.73399         0.02887
C          4.94601         5.60646        -0.37018
C          4.95861         8.44074        -0.02002
C          3.72914        10.60389         0.47162
C          3.74747        11.98623         0.81077
C          4.95979         9.88413         0.15173
C          5.03078        12.73407         0.79068
C          3.71264        14.93384         0.92644
C          3.96747        16.30967         1.58879
C          5.01792        14.21922         0.69804
C          4.99051        17.11932         0.85476
C          3.85675        19.16716         1.48041
C          5.02559        18.50264         0.97642
C          6.17302         2.03285        -0.71933
C          6.15172         3.46210        -0.68053
C          7.41801         1.33580        -0.87366
C          7.39333         4.20914        -1.09125
C          6.18047         6.32009        -0.42937
C          6.18460         7.73343        -0.22713
C          7.42438         5.63801        -0.61261
C          7.44230         8.41100        -0.24660
C          6.14469        10.56957         0.00236
C          6.23280        12.01639         0.26515
C          7.43292         9.86890        -0.08656
C          7.29369        12.79573        -0.45087
C          6.13553        14.92369         0.39211
C          6.12017        16.41726         0.15607
C          7.32647        14.26586        -0.20575
C          7.45224        17.05340         0.60129
C          6.23005        19.22016         0.58456
C          7.42954        18.55856         0.38339
C          8.64875         1.99916        -0.90675
C          8.68395         3.45378        -0.86458
C          9.87564         1.28484        -0.83871
C          9.88169         4.11853        -0.80671
C          8.63917         6.31795        -0.52699
C          8.65259         7.73351        -0.38794
C          9.94797         5.56665        -0.37953
C          9.99668         8.45412        -0.41901
C          8.66752        10.64682        -0.40786
C          8.53279        12.05621        -0.95506
C          9.90456         9.92414        -0.78989
C          9.81545        12.80484        -0.55777
C          8.59086        15.02622        -0.29658
C          8.65136        16.35827        -0.01061
C          9.79141        14.31578        -0.88925
C          9.88499        17.11633        -0.22783
C          8.65524        19.23409         0.10215
C          9.86141        18.56333        -0.14866
C         11.11334         1.94425        -0.80095
C         11.14683         3.40470        -0.88430
C         12.32609         1.24465        -0.62983
C         12.32872         4.08316        -1.07314
C         11.13362         6.29136        -0.94505
C         10.95929         7.71397        -1.37065
C         12.28327         5.53304        -1.53115
C         12.30610         8.45968        -1.54397
C         11.00975        10.62592        -1.15106
C         10.99708        12.10943        -1.22752
C         12.29596         9.95659        -1.47747
C         12.29596        12.85056        -1.28736
C         11.09933        14.96336        -0.40077
C         11.06753        16.45768        -0.52707
C         12.32775        14.29323        -0.95935
C         12.31264        17.14614        -0.70476
C         11.10454        19.25664        -0.31777
C         12.30266        18.59322        -0.56835
C         13.55875         1.93090        -0.57001
C         13.64399         3.32938        -1.14363
C         14.69125         1.32121        -0.04530
C         14.79134         4.12740        -0.55173
C         13.61451         6.29143        -1.35003
C         13.59125         7.77355        -1.25156
C         14.85795         5.57267        -0.88822
C         14.74983         8.49240        -1.00295
C         13.55472        10.69413        -1.20466
C         13.56139        12.09437        -1.19152
C         14.76587         9.96468        -1.02368
C         14.77006        12.83019        -1.04808
C         13.51171        14.99627        -1.05357
C         13.49631        16.44001        -0.94295
C         14.78012        14.26669        -1.12972
C         14.69967        17.20948        -1.42786
C         13.57584        19.26552        -0.55182
C         14.75518        18.59949        -0.81819
C         15.86407         2.06952         0.31358
C         15.84227         3.51785         0.06414
C         16.92774         1.45985         0.94479
C         17.07914         4.28781         0.34321
C         15.96121         6.39787        -0.35621
C         15.96145         7.80502        -0.54716
C         17.05538         5.76902         0.27362
C         17.11983         8.53981        -0.21038
C         15.95985        10.68313        -0.83575
C         15.98479        12.10668        -0.87201
C         17.26522         9.93550        -0.76639
C         17.19622        12.84623        -0.63952
C         15.99824        14.95993        -1.05350
C         16.02676        16.43477        -1.33117
C         17.18877        14.24657        -0.71395
C         17.31566        17.18831        -1.16292
C         16.01459        19.25302        -0.64519
C         17.25148        18.65695        -0.81398
C         17.98072         2.25237         1.66938
C         18.20328         3.60908         1.04025
C         19.31424         1.57345         1.89461
C         19.28147         4.42448         1.64053
C         18.12340         6.52902         0.77846
C         18.20320         7.92394         0.47853
C         19.17667         5.88719         1.60557
C         19.38912         8.67337         0.78128
C         18.38660        10.73462        -0.15990
C         18.40390        12.12281        -0.25319
C         19.51231        10.02743         0.37534
C         19.63416        12.84109        -0.01184
C         18.37053        15.01786        -0.14679
C         18.50859        16.38374        -0.75858
C         19.68024        14.24863        -0.15465
C         19.74890        16.89035        -0.96239
C         18.41093        19.43485        -0.42719
C         19.70456        19.08381        -0.73807
C         20.40789         2.31458         2.17314
C         20.38027         3.78019         2.16519
C         21.54815         4.54744         2.53718
C         20.39605         6.68214         2.04587
C         20.49434         8.16692         1.69669
C         21.59164         5.90073         2.40694
C         21.83322         8.62170         1.17483
C         20.76738        10.70186         0.48620
C         20.83773        12.10360         0.24603
C         21.94470         9.88099         0.69427
C         22.06826        12.81716         0.31998
C         20.92552        14.92018        -0.12853
C         20.96684        16.35418        -0.39033
C         22.11263        14.17693         0.11356
C         22.01960        17.19646        -0.06259
C         20.94230        19.50095        -0.13237
C         21.99726        18.62978         0.03975
O         11.47169        12.60285        -2.52219
O         19.86859        18.07446        -1.70254
O         16.86133        16.78373        -2.50699
O         18.21362         3.67675        -0.41806
O         19.26896         6.47328         2.96853
O          6.83134        13.68802        -1.51873
O          8.34694        10.40028         0.98918
O         14.61061         5.83145        -2.34142
O          6.09662        12.29195         1.70622
O         12.33337         9.25331        -2.77477
O         17.42222         2.53510         2.99882
H         17.35970         1.68678         3.48551
O         10.28650         7.66411        -2.65222
H         10.81971         7.07525        -3.23746
O          3.11395        15.16972        -0.36824
H          3.76231        15.66707        -0.91557
O         18.03109        15.21520         1.27493
H         18.07976        14.33828         1.71213
O         11.21425        14.78398         1.07031
H         12.04255        15.22953         1.35002
O         20.30106         8.87953         2.96661
H         19.60754         8.37680         3.45349
O          7.50042        16.82119         2.04414
H          8.33185        17.21175         2.38696
O         10.16695         5.48049         1.08556
H          9.35595         5.09743         1.48259
O         12.05078         5.51992        -2.98730
H         12.92472         5.35655        -3.41115
O          7.29407         4.31913        -2.56273
H          7.24900         3.40606        -2.91855
O          3.23581        13.82111         3.06306
H          3.70372        14.63562         3.37608
O          5.92625        16.61103        -1.27082
H          6.48288        15.95728        -1.74886
O         10.57672         8.43342         0.90688
H          9.97952         8.96192         1.48461
O          9.67014        14.49889        -2.31103
H         10.35903        13.93437        -2.75181
O         14.42979        17.42167        -2.84629
H         15.31048        17.46073        -3.29138
O         17.68357         9.73953        -2.17172
H         16.97307         9.23268        -2.62103
O          4.58812        16.09956         2.91735
H          5.56734        16.15713         2.80692
O         13.97555         3.15025        -2.55999
H         14.37460         3.99823        -2.87008
O          9.91148        12.56915         0.85573
H         10.52134        13.22416         1.26999
O          8.45030        11.92166        -2.37583
H          8.14955        12.79163        -2.73001
H          0.39366         1.40994         0.05944
H          0.34717         3.86995         0.15576
H          2.54149         0.18630        -0.26498
H          0.34459         5.78969         0.20394
H          0.34870         8.20602         0.43678
H          0.35186        10.10090         0.78301
H          0.40827        12.47230         1.34884
H          0.50013        14.38835         2.12432
H          0.55412        16.81490         2.22210
H          1.78193        18.99970         2.05394
H          4.98120         0.22443        -0.58129
H          3.84798        20.26514         1.53594
H          7.40348         0.23540        -0.86862
H          6.19349        20.31861         0.51821
H          9.85010         0.18544        -0.79541
H          8.64799        20.33529         0.07687
H         12.29902         0.16478        -0.41637
H         11.11189        20.35171        -0.20645
H         14.63425         0.26617         0.26597
H         13.60770        20.32221        -0.24266
H         16.89331         0.37073         1.10998
H         15.98933        20.30670        -0.32319
H         19.36121         0.47372         1.91674
H         18.23329        20.31011         0.21646
H         21.36472         1.82384         2.40887
H         22.45094         4.00011         2.84674
H         22.53634         6.43182         2.59138
H         22.72404         7.98830         1.28996
H         22.93081        10.27129         0.40333
H         23.00059        12.27568         0.52882
H         23.07993        14.69748         0.13669
H         22.93286        16.72951         0.33853
H         21.03760        20.52811         0.25144
H         22.91139        19.06084         0.47909
