         600
 CSIRO Nanostructure Databank - Neutral Graphene Oxide Data Set
C         22.92365        27.43567        -0.55468
C         22.95971        28.79158        -0.50429
C         22.96905        31.72208        -0.40336
C         22.97916        33.09366        -0.47218
C         23.00521        35.99886        -0.74810
C         23.01659        37.36445        -0.89801
C         23.04133        40.27713        -1.20107
C         23.04404        41.64985        -1.27485
C         23.07844        44.60113        -1.36471
C         23.09776        45.98523        -1.36496
C         25.38775        24.57749        -0.39273
C         24.19641        25.22238        -0.50375
C         25.39089        27.39620         0.12256
C         24.06972        26.62989        -0.12283
C         25.38365        28.85291        -0.05039
C         24.16654        29.54190        -0.20996
C         25.39597        31.68910        -0.04857
C         24.17124        30.97826        -0.23031
C         25.40242        33.13599        -0.10457
C         24.18882        33.83649        -0.36081
C         25.43062        35.98267        -0.42700
C         24.20295        35.26732        -0.50592
C         25.44036        37.40656        -0.56805
C         24.22493        38.11071        -0.80727
C         25.45187        40.26367        -0.77187
C         24.23043        39.54318        -0.92714
C         25.45009        41.68799        -0.80463
C         24.23044        42.40595        -1.03961
C         25.41168        44.55108        -0.45713
C         24.21980        43.83219        -1.03593
C         25.49497        46.00937        -0.81743
C         24.31026        46.71555        -1.11926
C         25.53483        48.81522        -0.98453
C         24.35848        48.13026        -1.22717
C         27.91800        23.12843        -0.04366
C         27.88029        24.54054        -0.10264
C         26.63177        25.26464        -0.11779
C         27.88373        27.39997        -0.04428
C         26.65435        26.66376        -0.01949
C         27.88091        28.82338         0.03059
C         26.62416        29.54935         0.01435
C         27.86149        31.64899         0.41629
C         26.60712        30.95654         0.08591
C         27.85250        33.17763         0.39758
C         26.61360        33.87380         0.01802
C         27.89943        35.99410        -0.09114
C         26.65200        35.27252        -0.17491
C         27.90287        37.40997        -0.25858
C         26.67604        38.12506        -0.47281
C         27.91511        40.26092        -0.51221
C         26.68027        39.54235        -0.57820
C         27.92458        41.68068        -0.58897
C         26.69311        42.40665        -0.67214
C         27.93265        44.52914        -0.57040
C         26.70897        43.81314        -0.62388
C         27.95203        45.96053        -0.53627
C         26.72135        46.70090        -0.67082
C         27.97227        48.81545        -0.37216
C         26.73964        48.12447        -0.69964
C         27.99613        50.21040        -0.10854
C         30.35419        23.12256        -0.13371
C         29.12076        22.44309        -0.03867
C         30.34705        24.54642        -0.20668
C         29.11063        25.25969        -0.13919
C         30.35635        27.39976        -0.18716
C         29.11970        26.68930        -0.13867
C         30.35908        28.81909        -0.06472
C         29.12128        29.52888         0.05297
C         30.34784        31.67094         0.29839
C         29.14157        30.94850         0.23495
C         30.31974        33.11491         0.35652
C         29.14330        33.86014         0.26070
C         30.35040        36.02496         0.19736
C         29.13542        35.30039         0.12517
C         30.36468        37.44296         0.01546
C         29.13453        38.13306        -0.21723
C         30.38088        40.26362        -0.34131
C         29.14456        39.55094        -0.35795
C         30.39239        41.67933        -0.43825
C         29.16057        42.39226        -0.53560
C         30.41043        44.52200        -0.54557
C         29.16784        43.81437        -0.55322
C         30.41715        45.94470        -0.44403
C         29.18641        46.65210        -0.43008
C         30.38837        48.74633         0.11805
C         29.17952        48.08369        -0.25353
C         30.34864        50.10363         0.52057
C         29.13665        50.82595         0.36457
C         32.85054        20.31653         0.04956
C         31.66141        21.01202         0.12979
C         32.81969        23.06210        -0.49199
C         31.61175        22.39592        -0.15349
C         32.76684        24.51472        -0.76156
C         31.56143        25.26900        -0.40996
C         32.83882        27.40251        -0.36758
C         31.58853        26.68128        -0.36077
C         32.83222        28.82625        -0.16173
C         31.60019        29.53347        -0.02726
C         32.84532        31.62981         0.21153
C         31.60764        30.95368         0.17387
C         32.88382        33.07574         0.48133
C         31.58740        33.84651         0.52642
C         32.80700        35.98359         0.32776
C         31.60662        35.31683         0.33502
C         32.82516        37.48044         0.55973
C         31.59007        38.16546         0.04113
C         32.86372        40.27033        -0.27863
C         31.61723        39.54952        -0.20084
C         32.87676        41.65324        -0.38851
C         31.63461        42.39618        -0.45800
C         32.90084        44.53666        -0.89878
C         31.63216        43.79346        -0.57869
C         32.88049        45.98058        -0.42013
C         31.67602        46.65505        -0.29314
C         32.81940        48.73841         0.46329
C         31.64808        48.05762         0.09193
C         32.77795        50.02275         1.08495
C         31.51360        50.68735         1.14773
C         32.43655        52.27957         2.68755
C         31.37392        51.86413         1.91344
C         35.33515        18.81358        -0.22943
C         35.30312        20.21934        -0.37005
C         34.05700        20.96227        -0.31507
C         35.30722        23.05887        -1.03220
C         34.03947        22.35903        -0.56172
C         35.33930        24.52927        -0.66617
C         34.10009        25.28972        -0.80907
C         35.31588        27.38145        -0.25913
C         34.07416        26.71744        -0.46680
C         35.31379        28.81778        -0.10957
C         34.07361        29.52709        -0.09457
C         35.33177        31.66025         0.09698
C         34.08443        30.94723         0.06135
C         35.33397        33.11096         0.09147
C         34.13051        33.79774         0.18666
C         35.37279        36.00341         0.03032
C         34.06791        35.25553         0.06817
C         35.36694        37.43160         0.56735
C         34.11098        38.13945         0.18479
C         35.39220        40.27012        -0.10895
C         34.14423        39.48530        -0.46545
C         35.38520        41.65578        -0.17437
C         34.13840        42.39334        -0.37658
C         35.41500        44.49811        -0.53851
C         34.14040        43.76403        -0.50993
C         35.43301        45.99751        -0.41618
C         34.13888        46.74237        -0.37269
C         35.36772        48.75289         0.75948
C         34.13513        48.15749         0.17665
C         35.31614        50.00532         1.43565
C         33.96348        50.58031         1.69581
C         35.63078        52.81378         2.93793
C         33.68295        51.63282         2.58929
C         35.68719        54.16542         3.12393
C         37.77138        18.73628        -0.00024
C         36.51263        18.09355        -0.04852
C         37.79189        20.15623        -0.43555
C         36.53724        20.93862        -0.48111
C         37.80468        23.06273        -0.53258
C         36.56982        22.32419        -0.63775
C         37.78853        24.49174        -0.43150
C         36.53160        25.20972        -0.44348
C         37.78510        27.32236        -0.09324
C         36.53966        26.64661        -0.27333
C         37.76216        28.75434         0.23927
C         36.52486        29.52462         0.06152
C         37.82546        31.66681         0.08943
C         36.55596        30.94819         0.10643
C         37.82968        33.10149         0.07110
C         36.59839        33.82982         0.06822
C         37.85000        35.95913         0.19780
C         36.62635        35.23568         0.13611
C         37.85139        37.40237         0.19084
C         36.63869        38.14583         0.19982
C         37.87590        40.25133         0.05298
C         36.62928        39.54060         0.05153
C         37.88435        41.66237        -0.00672
C         36.63869        42.39449        -0.11703
C         37.93413        44.54643        -0.45187
C         36.65621        43.76844        -0.26317
C         37.85454        45.96935         0.08011
C         36.65601        46.67790         0.08953
C         37.82028        48.70425         0.87287
C         36.59549        48.04067         0.57854
C         37.79811        50.06471         1.31662
C         36.57217        50.66892         1.72333
C         37.97618        52.84570         2.10799
C         36.72671        52.00929         2.37370
C         37.91436        54.32701         2.12782
C         36.79745        54.93548         2.64915
C         40.23157        16.04327         0.84672
C         39.05913        16.67897         0.50800
C         40.14247        18.92946         0.83972
C         38.96892        18.09268         0.36797
C         40.28819        20.27238         0.15927
C         39.09108        20.91398        -0.42372
C         40.26525        23.09452        -0.34600
C         39.04123        22.38497        -0.40734
C         40.23417        24.50374        -0.41682
C         39.00696        25.20939        -0.34966
C         40.27177        27.38263        -0.23708
C         39.01615        26.64844        -0.19601
C         40.29436        28.76936        -0.14421
C         39.09683        29.51866         0.21877
C         40.29157        31.68317        -0.08486
C         39.05400        30.98226         0.03086
C         40.30267        33.10333         0.00055
C         39.06394        33.81382         0.07730
C         40.32214        35.94902         0.10890
C         39.07770        35.24286         0.13932
C         40.32838        37.37210         0.12966
C         39.09348        38.09609         0.14113
C         40.34050        40.22356         0.16314
C         39.10318        39.52193         0.12582
C         40.34578        41.64695         0.17738
C         39.11883        42.37136         0.06309
C         40.34072        44.48652         0.22381
C         39.14279        43.79080         0.02974
C         40.33074        45.92491         0.34875
C         39.08611        46.63142         0.38840
C         40.30640        48.71782         0.79309
C         39.06672        48.01703         0.69335
C         40.28863        50.13201         0.97504
C         39.06083        50.79648         1.26987
C         40.29733        52.93723         1.27402
C         39.10205        52.19418         1.43540
C         40.26604        54.39248         1.33150
C         39.07108        55.07341         1.63260
C         40.13940        57.19566         1.05262
C         39.03612        56.49156         1.48517
C         42.67747        16.11292         1.30706
C         41.45585        16.77381         1.03802
C         42.65059        18.90400         1.07842
C         41.45364        18.18370         0.92858
C         42.61796        20.37845         0.95527
C         41.43706        20.99913         0.30759
C         42.74322        23.05698        -0.15922
C         41.51837        22.38917        -0.11550
C         42.78875        24.44949        -0.64421
C         41.47306        25.23478        -0.69213
C         42.75668        27.34385        -0.51968
C         41.52160        26.68535        -0.51068
C         42.79985        28.78216        -0.39486
C         41.50672        29.52950        -0.61987
C         42.74242        31.65269        -0.09887
C         41.53301        30.97537        -0.18868
C         42.77445        33.08254        -0.03723
C         41.54596        33.80450        -0.00966
C         42.79537        35.93304         0.00595
C         41.55745        35.23344         0.03918
C         42.80204        37.35900         0.05990
C         41.56854        38.07638         0.12150
C         42.80811        40.20985         0.17057
C         41.57478        39.50231         0.16382
C         42.81358        41.63474         0.22661
C         41.57974        42.35299         0.24128
C         42.81043        44.48318         0.37471
C         41.58014        43.77421         0.30604
C         42.80959        45.91071         0.47205
C         41.55289        46.61582         0.50401
C         42.77802        48.75693         0.67547
C         41.54153        48.03288         0.65907
C         42.76665        50.16251         0.77670
C         41.51682        50.85709         0.93655
C         42.79823        53.02147         1.23229
C         41.50942        52.26370         1.05919
C         42.69724        54.45989         0.80379
C         41.44779        55.12225         0.97259
C         42.54432        57.23653         0.39935
C         41.37434        56.53488         0.80046
C         43.85204        16.82940         1.46693
C         45.13193        18.99160         1.41336
C         43.87632        18.24026         1.34844
C         45.17593        20.36232         1.08690
C         43.92526        21.12498         0.92667
C         45.21045        23.07041         0.11263
C         43.97926        22.44940         0.27409
C         45.28946        24.40688        -0.58774
C         44.02420        25.21255        -0.48371
C         45.25928        27.33239        -0.46745
C         44.01595        26.60554        -0.51710
C         45.25719        28.74989        -0.36417
C         43.99610        29.45094        -0.26404
C         45.27462        31.64148        -0.22128
C         44.02246        30.89618         0.16362
C         45.26221        33.05295        -0.21634
C         44.02305        33.78203        -0.09462
C         45.26315        35.92242        -0.19158
C         44.03420        35.21017        -0.09411
C         45.27383        37.36028        -0.11449
C         44.03783        38.07114         0.03122
C         45.27462        40.21023         0.06572
C         44.04341        39.49332         0.09860
C         45.28002        41.63477         0.13822
C         44.04446        42.34741         0.23109
C         45.27771        44.48491         0.30419
C         44.04336        43.77070         0.31074
C         45.28154        45.90719         0.43523
C         44.03074        46.61588         0.53436
C         45.23554        48.77391         0.56644
C         44.02689        48.05351         0.59936
C         45.23155        50.18813         0.50136
C         43.99659        50.89768         0.65504
C         45.17955        53.03775         0.40923
C         44.00220        52.30490         0.69480
C         45.13215        54.46766         0.30947
C         43.85289        55.17028         0.44477
C         43.73865        56.57427         0.21376
C         47.55696        19.02220         1.68672
C         46.35754        18.34424         1.72775
C         47.62741        20.37480         1.26169
C         46.41404        21.05097         0.94107
C         47.68964        23.06469         0.27807
C         46.44077        22.41165         0.46841
C         47.72967        24.49169        -0.04781
C         46.52280        25.19321        -0.24980
C         47.73600        27.31240        -0.33130
C         46.51178        26.60199        -0.37364
C         47.73152        28.74997        -0.76305
C         46.46842        29.48747        -0.40926
C         47.73518        31.62113        -0.50399
C         46.48711        30.91359        -0.37661
C         47.73327        33.06039        -0.46139
C         46.49957        33.77147        -0.32856
C         47.73594        35.90255        -0.31392
C         46.50187        35.19836        -0.30411
C         47.74129        37.37912        -0.61122
C         46.48527        38.08706        -0.18668
C         47.74402        40.22621        -0.11799
C         46.50409        39.49798        -0.08031
C         47.74494        41.63838        -0.01376
C         46.50944        42.34921         0.10024
C         47.73543        44.49616         0.15013
C         46.50798        43.77630         0.18798
C         47.72994        45.91681         0.26470
C         46.51079        46.60299         0.44354
C         47.73848        48.79707         0.25878
C         46.54004        48.06255         0.80395
C         47.69172        50.20609         0.12854
C         46.45091        50.91702         0.30199
C         47.61539        53.06646        -0.07985
C         46.41559        52.33307         0.19784
C         47.53388        54.47493        -0.14515
C         46.32955        55.15047         0.03715
C         50.12214        20.46093         1.50197
C         48.88245        21.06467         1.11613
C         50.19420        22.98633         0.25972
C         48.89367        22.36961         0.57111
C         50.22403        24.49186        -0.07049
C         48.94863        25.21605        -0.04873
C         50.22447        27.35524        -0.16674
C         48.96118        26.62810        -0.17627
C         50.23063        28.77139        -0.29505
C         48.99738        29.49061        -0.43337
C         50.24282        31.59944        -0.67886
C         48.96389        30.88781        -0.50755
C         50.23275        33.11103        -0.65882
C         48.94981        33.79955        -0.43301
C         50.22437        35.91974         0.08415
C         48.94812        35.20037        -0.29129
C         50.22511        37.40832        -0.17033
C         49.01201        38.10412        -0.24572
C         50.22207        40.24176        -0.10366
C         48.99391        39.51914        -0.17777
C         50.22330        41.66999        -0.05388
C         48.98313        42.36774        -0.01444
C         50.20596        44.50739         0.04291
C         48.97411        43.78781         0.04730
C         50.18563        45.95352         0.03397
C         48.97406        46.64562         0.15196
C         50.14477        48.80260        -0.23411
C         48.94334        48.09031         0.07147
C         50.11668        50.22449        -0.35322
C         48.88868        50.93281        -0.18011
C         50.07411        53.03834        -0.55570
C         48.85702        52.35660        -0.27686
C         51.33092        21.10979         1.37701
C         52.65500        23.09957         0.64873
C         51.43286        22.39144         0.77069
C         52.67936        24.51077         0.33867
C         51.47674        25.22568         0.12240
C         52.69829        27.35420         0.04339
C         51.45394        26.64777         0.02553
C         52.71320        28.78270        -0.09995
C         51.48638        29.48686        -0.24353
C         52.71587        31.62989        -0.35760
C         51.50949        30.90105        -0.40259
C         52.72360        33.08026        -0.40957
C         51.50525        33.81347        -0.43219
C         52.69600        35.93885        -0.39601
C         51.49700        35.22168        -0.32998
C         52.70697        37.38655        -0.26596
C         51.45257        38.11274        -0.12063
C         52.68911        40.27784        -0.06280
C         51.45822        39.53801        -0.11043
C         52.71174        41.67271        -0.02707
C         51.45745        42.39415        -0.01632
C         52.70694        44.57464         0.25261
C         51.42994        43.80703         0.02312
C         52.65007        45.99860        -0.25202
C         51.41848        46.67578        -0.20043
C         52.57066        48.79970        -0.71137
C         51.37035        48.09170        -0.39333
C         52.55628        50.23341        -0.76088
C         51.33280        50.94138        -0.60687
C         51.26358        52.36273        -0.71000
C         55.08736        23.12638         0.92177
C         53.90031        22.44665         0.91646
C         55.15537        24.53236         0.65916
C         53.92821        25.22381         0.34186
C         55.17630        27.34661        -0.05478
C         53.91307        26.62597         0.13080
C         55.19348        28.81492        -0.01032
C         53.95246        29.50701        -0.09599
C         55.19328        31.63807        -0.17679
C         53.95506        30.92934        -0.20213
C         55.19844        33.07340        -0.25245
C         53.95018        33.78424        -0.33358
C         55.15042        35.93266        -0.48388
C         53.95188        35.22531        -0.42515
C         55.11422        37.38312        -0.88733
C         53.89801        38.07465        -0.33944
C         55.25825        40.23805        -0.12391
C         53.94874        39.50864        -0.01730
C         55.23519        41.70795        -0.26990
C         53.97545        42.42219        -0.10123
C         55.17977        44.59525        -0.27510
C         53.94342        43.80808        -0.14373
C         55.09603        46.00396        -0.72133
C         53.83543        46.69337        -0.63641
C         54.94680        48.80826        -1.53990
C         53.77505        48.08092        -0.92133
C         54.98076        50.24880        -1.09594
C         53.83164        50.91302        -0.83043
C         57.54202        24.67172         1.40866
C         56.38180        25.23121         0.79753
C         57.65271        27.42297         0.64028
C         56.48473        26.60523         0.29695
C         57.65385        28.81785         0.38754
C         56.41873        29.51022         0.07520
C         57.65919        31.66054         0.03663
C         56.42188        30.94045        -0.01412
C         57.66252        33.08139        -0.14005
C         56.42076        33.76819        -0.23234
C         57.64955        35.87011        -0.81005
C         56.44350        35.27045        -0.12070
C         57.64248        37.37906        -1.04902
C         56.41892        38.12914        -0.71888
C         57.70380        40.22667        -0.77383
C         56.47222        39.48924        -0.54705
C         57.67557        41.65113        -0.78561
C         56.43306        42.35913        -0.51863
C         57.63180        44.51086        -1.07137
C         56.48026        43.82916        -0.46220
C         57.48357        45.90700        -1.47025
C         56.25794        46.67758        -1.17040
C         57.48932        48.76200        -1.62454
C         56.25996        48.06595        -1.43753
C         58.70028        25.39750         1.56889
C         59.96064        27.54062         1.41826
C         58.77990        26.78469         1.20922
C         60.00431        28.87841         1.07412
C         58.85966        29.55323         0.57750
C         60.08491        31.71494         0.29924
C         58.88314        30.97479         0.29556
C         60.09898        33.07776         0.02703
C         58.91041        33.79472        -0.20615
C         60.09785        35.91307        -0.85183
C         58.93630        35.19291        -0.60250
C         60.09637        37.31472        -1.06388
C         58.93457        38.07605        -1.05953
C         60.09282        40.27804        -1.25976
C         58.91757        39.52723        -1.02798
C         60.06323        41.66114        -1.28650
C         58.86682        42.38117        -1.06766
C         60.04636        44.59849        -1.44438
C         58.83288        43.83346        -1.23643
C         60.04819        45.95371        -1.56646
C         58.80183        46.69194        -1.76868
C         58.71583        48.14252        -1.64427
O         34.66778        35.77359        -1.21547
O         38.47939        29.08198         1.47815
O         35.57589        45.38883        -1.76493
O         50.26041        32.36966        -1.93815
O         57.96349        46.14676        -2.83092
O         37.80179        52.12532         3.39173
O         57.44098        36.39494        -2.14951
O         42.11487        24.72784        -1.91877
O         34.59851        52.10043         3.53390
O         54.76270        39.79584         1.20067
O         38.60117        20.30586        -1.67342
O         27.75475        32.42522         1.65914
O         33.35127        24.93724        -2.04506
O         32.28044        33.46381         1.78136
O         56.03628        26.77304        -1.09011
O         56.12196        44.39483         0.85573
O         34.23330        47.89674        -1.28244
O         50.29380        23.47056        -1.12109
O         24.54592        26.93179         1.22454
O         43.07494        21.10324         2.14938
O         35.26812        23.01609        -2.50040
H         34.53082        23.61694        -2.77228
O         46.71402        48.08436         2.27624
H         46.71393        49.02534         2.55454
O         52.82435        44.71813         1.71990
H         53.05704        43.83848         2.08700
O         44.09369        30.82026         1.64419
H         44.13041        31.74097         1.98183
O         43.01990        53.06490         2.69875
H         42.23188        53.49369         3.09697
O         54.90798        37.37242        -2.35675
H         55.69602        36.90750        -2.73378
O         45.41571        24.07813        -2.02156
H         45.37147        24.91887        -2.52513
O         39.78838        19.27231         2.23638
H         40.57666        19.69343         2.64413
O         32.71283        37.60403         2.06250
H         31.97342        37.02191         2.34632
O         41.36290        29.60362        -2.09012
H         41.43086        28.68804        -2.43762
O         47.72088        28.68346        -2.25322
H         48.58050        28.30052        -2.53253
O         34.24412        39.26213        -1.92937
H         34.27789        40.14400        -2.35841
O         56.66689        35.57552         1.30984
H         55.92866        35.17698         1.81787
O         35.41424        37.29529         2.03216
H         34.49179        37.41419         2.37466
O         32.95152        44.63686        -2.36637
H         33.80971        45.07954        -2.57963
O         38.14929        44.67074        -1.90167
H         37.31246        45.05102        -2.27010
O         50.23745        35.81084         1.56264
H         51.01314        36.31729         1.88659
O         25.16213        44.54732         1.01680
H         24.31646        45.02478         1.15961
O         54.66182        48.85254        -2.99567
H         53.80664        49.32090        -3.10556
O         47.71743        37.44441        -2.09356
H         46.89472        37.00128        -2.39315
H         22.02762        26.91812        -0.92856
H         22.05820        29.34341        -0.80250
H         22.00748        31.20128        -0.49527
H         22.02534        33.61408        -0.62612
H         22.04315        35.47542        -0.81649
H         22.06389        37.87850        -1.07911
H         22.09263        39.74798        -1.35961
H         22.09840        42.16813        -1.48263
H         22.14741        44.09558        -1.65819
H         22.18813        46.54443        -1.62619
H         25.42935        23.51025        -0.65036
H         23.31062        24.69547        -0.88833
H         25.53164        49.91227        -1.04092
H         23.44060        48.68122        -1.47800
H         26.98492        22.55391         0.02187
H         27.08066        50.80643        -0.22172
H         29.09729        21.34688         0.01379
H         29.09913        51.89712         0.60431
H         32.84730        19.24489         0.28636
H         30.75349        20.47375         0.43057
H         32.33498        53.11589         3.39074
H         30.41071        52.38460         1.98137
H         34.39146        18.25244        -0.20266
H         34.86210        54.67151         3.64096
H         36.43779        17.01534         0.14936
H         36.74100        56.02872         2.73596
H         40.25780        14.94685         0.92386
H         38.17491        16.06412         0.28687
H         40.07929        58.28557         0.91956
H         38.10448        57.03561         1.69250
H         42.68777        15.01695         1.39400
H         42.48872        58.32406         0.24597
H         44.77809        16.27691         1.67331
H         44.62019        57.15151        -0.09632
H         48.47414        18.48103         1.95335
H         46.36235        17.28805         2.02701
H         48.43352        55.07005        -0.35061
H         46.33556        56.24645        -0.03561
H         50.11495        19.46358         1.96049
H         50.07887        54.13251        -0.64932
H         52.23398        20.61166         1.75509
H         52.17318        52.93797        -0.92897
H         56.01430        22.56931         1.11220
H         53.91131        21.36439         1.10185
H         55.92701        50.80682        -1.10990
H         53.87482        51.98762        -0.60223
H         57.52002        23.63149         1.76163
H         57.47050        49.85954        -1.67413
H         59.58170        24.92418         2.02477
H         60.84665        27.04996         1.84565
H         60.93805        29.43323         1.23611
H         61.04246        31.21035         0.48405
H         61.06627        33.59764        -0.00036
H         61.07606        35.41680        -0.78253
H         61.07394        37.81324        -1.12405
H         61.04213        39.76341        -1.45927
H         60.99559        42.19624        -1.50758
H         61.01296        44.08394        -1.35829
H         60.99430        46.51369        -1.53112
H         59.64159        48.73493        -1.60773
