         276
 CSIRO Nanostructure Databank - Neutral Graphene Oxide Data Set
C         30.32793        31.21142         0.09756
C         30.76719        32.33188        -0.19766
C         30.60353        35.80152        -0.51588
C         30.90471        37.02880        -0.77602
C         30.69996        40.30712        -0.77597
C         30.63426        41.58108        -0.93024
C         32.73582        28.98779         0.35276
C         31.50757        29.15392         0.42467
C         33.20774        31.50675        -0.58092
C         30.26407        29.81098         0.30662
C         33.03956        32.96871        -0.41548
C         31.67432        33.38992        -0.48798
C         33.36375        35.90586        -0.92573
C         31.40645        34.72983        -0.91376
C         33.29107        37.39999        -1.08339
C         31.84929        38.01736        -0.86883
C         33.06497        40.25432        -0.81725
C         31.78185        39.43241        -0.81386
C         33.00402        41.75277        -0.82493
C         31.66976        42.48814        -0.97640
C         33.12533        44.36049        -1.45229
C         31.98758        43.83999        -1.27340
C         35.41659        27.24844         1.14885
C         35.37560        28.64166         0.55179
C         34.07834        29.43769         0.50010
C         35.25203        31.61119         0.91103
C         34.18105        30.80091         0.25514
C         35.32862        33.04585         0.41427
C         34.22814        33.74338        -0.08431
C         35.36738        36.00559         0.45080
C         34.28829        35.22325        -0.18257
C         35.41376        37.37076         0.42601
C         34.14809        38.10870        -0.00402
C         35.28231        40.29839         0.59336
C         34.40655        39.56557        -0.47238
C         35.30359        41.83886         0.41292
C         34.13888        42.55559        -0.20613
C         35.69674        44.50354        -0.72652
C         34.25938        44.10049        -0.48022
C         36.05959        45.75509        -1.36492
C         37.90761        27.13445         1.11800
C         36.54280        26.71264         1.15049
C         37.91051        28.62379         1.37850
C         36.60028        29.40386         1.17062
C         37.58902        31.75546         1.61992
C         36.63417        30.90055         0.82177
C         37.73557        33.08141         1.33478
C         36.47062        33.78229         0.99516
C         37.76171        35.91142         1.40554
C         36.44502        35.24818         1.12838
C         37.77765        37.40111         1.49019
C         36.43837        38.14729         1.30781
C         37.83194        40.38937         1.28504
C         36.68528        39.55948         0.67663
C         37.84569        41.88451         1.04609
C         36.57365        42.61214         0.66562
C         37.90189        44.76715         0.62041
C         36.71101        43.96299         0.04981
C         38.10195        46.16950        -0.08131
C         37.13932        46.32618        -1.09540
C         40.18021        24.37361         0.01909
C         39.22352        25.09782         0.38474
C         40.30816        27.21402         0.18090
C         39.00395        26.47507         0.63966
C         40.37843        28.63929         0.69552
C         39.24629        29.28420         1.21890
C         40.41373        31.47120         1.05065
C         39.43524        30.62742         1.58586
C         40.38690        32.98990         1.30281
C         39.02481        33.76689         1.29503
C         40.07157        35.87660         0.34138
C         39.00755        35.13385         1.12843
C         40.21777        37.36244         0.68126
C         39.08785        38.12615         1.27851
C         40.37323        40.30277         0.83827
C         39.12741        39.63265         1.30613
C         40.45909        41.80205         1.11428
C         39.15756        42.58054         0.85143
C         40.51508        44.62441         0.76641
C         39.20264        43.94412         0.72711
C         40.69328        45.92916         1.16754
C         38.91839        47.10456         0.50620
C         40.71701        48.60162         0.36403
C         39.57161        48.24165        -0.07235
C         42.82392        24.44890        -0.25904
C         41.54330        24.86906         0.29453
C         42.91065        27.17317         0.37893
C         41.61165        26.40948         0.52270
C         42.91306        28.71396         0.47544
C         41.55390        29.39000         0.46701
C         42.74524        31.56966         0.13214
C         41.54718        30.80872         0.51107
C         42.69549        32.99006         0.14329
C         41.33626        33.66554         0.27480
C         42.51479        35.87241        -0.33601
C         41.45250        35.19242         0.54065
C         42.56087        37.37229        -0.12695
C         41.24064        38.13014        -0.15464
C         42.50067        40.30244        -0.50231
C         41.37121        39.60036         0.23250
C         42.72370        41.72396        -0.05361
C         41.64566        42.46556         0.43614
C         42.88808        44.58113        -0.02168
C         41.71007        43.87336         0.43324
C         42.95876        45.98991         0.12725
C         42.03299        46.63479         1.14405
C         43.25635        48.64909         0.61409
C         41.96208        48.17812         0.79127
C         43.86800        25.06101        -0.50689
C         45.26211        27.24986        -0.74420
C         44.16584        26.46073        -0.18221
C         45.12972        28.72640        -0.96752
C         43.89349        29.42429        -0.46110
C         45.13000        31.62406        -0.49043
C         43.91970        30.90225        -0.27776
C         45.10925        33.04523        -0.34051
C         43.85720        33.74118        -0.15457
C         45.02954        35.92917        -0.12550
C         43.84190        35.17649        -0.17715
C         45.00455        37.32709         0.02204
C         43.75763        38.04817        -0.06862
C         45.09242        40.21166        -0.27054
C         43.82782        39.44976        -0.65385
C         45.12836        41.61630        -0.53803
C         43.93934        42.39026        -0.44118
C         45.16672        44.48529        -1.10158
C         43.97502        43.80997        -0.53998
C         45.18156        46.00123        -1.07766
C         44.00557        46.83017        -0.59821
C         44.32525        47.96608         0.38673
C         47.66816        27.41278        -1.25447
C         46.56018        26.84641        -1.01624
C         47.74182        28.88692        -0.82270
C         46.39735        29.53373        -1.33645
C         47.55361        31.70535        -0.77032
C         46.36112        30.97880        -0.84249
C         47.53830        33.07282        -0.40275
C         46.32640        33.75908        -0.31808
C         47.51722        35.94260         0.18680
C         46.34110        35.25779        -0.44460
C         47.56198        37.43221        -0.02510
C         46.24601        38.08264         0.44994
C         47.47431        40.35517         0.42508
C         46.24172        39.54476         0.08812
C         47.71934        41.47038        -0.62038
C         46.41705        42.22373        -0.94107
C         47.89337        44.34875        -1.41086
C         46.44709        43.67976        -1.29908
C         47.61522        45.80061        -1.18339
C         46.58232        46.44420        -1.02777
C         50.18727        29.26103        -1.65517
C         48.91391        29.65376        -1.33846
C         50.12573        31.76642        -0.61091
C         48.87131        31.17724        -1.29567
C         50.09135        33.06067        -0.17377
C         48.76541        33.69954         0.22394
C         49.91949        35.85990         0.91015
C         48.83336        35.23171         0.03218
C         49.91517        37.38990         0.87202
C         48.77617        38.10783         0.59909
C         49.89231        40.29515         0.93216
C         48.76100        39.56598         0.64908
C         49.90992        41.82030         0.81595
C         48.80875        42.39898        -0.08517
C         50.09050        44.33647        -0.03607
C         48.85201        43.72182        -0.43493
C         51.32896        29.86078        -1.73766
C         52.56409        31.92076        -0.66970
C         51.45209        30.90773        -0.61130
C         52.45264        33.04756        -0.16019
C         51.30504        33.86525         0.12703
C         52.27814        36.09908         0.89449
C         51.25873        35.15910         0.56973
C         52.30494        37.23710         1.39763
C         51.09501        38.08883         1.46762
C         52.25097        40.47142         1.51075
C         51.07343        39.59432         1.52452
C         52.30993        41.67682         1.24727
C         51.36899        42.41930         0.36002
C         51.15079        43.92449         0.46645
O         46.32666        42.68279        -2.34842
O         41.63868        25.45009         1.61240
O         40.25665        27.29887        -1.19447
O         32.60872        30.91474        -1.49426
O         43.96680        26.66200         1.25349
O         36.99793        42.54018         2.05978
O         39.61229        46.64386         1.68222
O         35.96381        34.46133         2.28022
O         43.97920        29.00715        -1.85663
O         34.19722        42.37681         1.22807
O         37.77469        36.60161         2.71309
O         44.01232        39.12521        -2.00803
O         37.04052        29.03446         2.48602
O         32.49702        35.17723        -1.74721
O         40.20160        37.61982         2.09968
O         38.51298        31.18574         2.47867
O         38.46321        40.08917         2.55447
O         44.87739        45.32087        -2.31381
O         33.26360        41.02946        -2.07063
O         50.80700        38.79355         2.69841
O         40.70231        33.42963        -0.99757
H         41.03971        34.09187        -1.64410
O         43.43416        47.44459        -1.75986
H         43.67273        46.89146        -2.53810
O         42.16073        35.67891        -1.74173
H         42.75161        36.24911        -2.28165
O         51.51564        30.21391         0.61120
H         52.37621        29.75030         0.66984
O         47.18359        41.03948         1.68404
H         47.01764        40.34211         2.35720
O         49.24481        35.46447        -1.35073
H         48.50408        35.13939        -1.92116
O         43.41575        29.04651         1.80324
H         43.88747        28.25482         2.15704
O         48.19726        40.84394        -1.81402
H         47.97037        41.43264        -2.56943
O         41.91708        35.44850         1.86959
H         41.40994        34.89118         2.50828
O         51.61402        42.08227        -0.96816
H         52.46939        42.45893        -1.25777
O         35.86030        38.24775         2.61407
H         36.26601        37.52094         3.15251
O         40.70494        41.92436         2.54280
H         39.96621        41.45815         3.00191
O         47.63745        37.73978        -1.45255
H         48.49280        37.37231        -1.77769
O         49.65423        35.58023         2.30887
H         50.31392        36.06951         2.84750
O         35.71405        28.53469        -0.84967
H         35.03455        27.99347        -1.30557
O         33.95328        44.79843         0.72384
H         33.07266        44.51302         1.04598
O         42.61598        46.51498         2.45695
H         41.96700        46.83770         3.11723
O         49.69796        42.33228         2.14079
H         48.79332        42.05799         2.41685
O         29.11099        29.15394         0.42479
H         28.34646        29.75381         0.31962
O         46.27943        38.03786         1.91193
H         45.35926        38.07990         2.24925
O         40.73603        38.13590        -1.52293
H         41.13585        38.93543        -1.96722
O         46.49088        29.54811        -2.76714
H         45.58174        29.64617        -3.12732
O         46.48490        35.42963        -1.91809
H         46.55768        36.40754        -2.08170
O         48.39393        44.11385        -2.70903
H         47.75838        44.47241        -3.36298
O         37.31193        39.30396        -0.60061
H         36.67175        38.89975        -1.23575
O         48.95275        31.65954        -2.66147
H         49.69983        31.19243        -3.09670
O         37.08454        31.00035        -0.55190
H         36.71167        30.24019        -1.05898
O         48.55894        33.33055         1.60969
H         49.01716        33.97890         2.19800
O         34.88144        31.69152         2.31345
H         35.16588        32.56464         2.66913
O         39.59460        35.77929        -1.01654
H         40.07609        36.44621        -1.56743
O         47.73066        28.94680         0.59460
H         48.62805        28.75081         0.93716
O         40.90596        33.15874         2.64609
H         40.29407        32.69928         3.26168
O         42.00374        40.47975        -1.86484
H         42.76086        40.10991        -2.43228
O         33.69265        37.68429        -2.42437
H         33.28786        37.00539        -3.00618
O         35.14385        39.51934        -1.69915
H         34.62818        39.98977        -2.39895
O         34.62999        40.13008         1.85394
H         35.11532        40.64230         2.53518
O         37.50826        45.08265         1.96145
H         36.54031        45.23685         1.98727
O         33.29579        38.08485         1.15769
H         33.82721        38.40724         1.92781
