         234
 CSIRO Nanostructure Databank - Neutral Graphene Oxide Data Set
C          1.26924         1.96868         1.02551
C          1.21923         3.37400         1.15090
C          2.43472         1.29234         0.69860
C          2.35496         4.16582         0.93186
C          1.18153         6.36388         0.90572
C          1.16902         7.73349         0.88500
C          2.36651         5.58474         1.06283
C          2.34641         8.55907         1.22405
C          1.44397        10.52256        -0.15858
C          1.48573        11.86702        -0.52750
C          2.34038         9.99850         0.79865
C          2.51713        12.73370        -0.09196
C          1.50706        14.81515        -1.06058
C          1.55086        16.18443        -1.32601
C          2.57679        14.15757        -0.42950
C          2.67963        16.95325        -0.99203
C          2.74407        18.36656        -1.27768
C          3.64249         2.00189         0.42701
C          3.56999         3.47871         0.42079
C          4.85216         1.36744         0.18329
C          4.86615         4.23072         0.30223
C          3.65396         6.28380         1.29773
C          3.66580         7.78336         1.47442
C          4.93777         5.59312         0.90840
C          4.98204         8.45196         1.26454
C          3.29284        10.90575         1.29832
C          3.50637        12.19143         0.76457
C          5.12929         9.79539         1.56305
C          4.76879        12.92718         1.00537
C          3.73456        14.92429        -0.07532
C          3.79541        16.31821        -0.37579
C          4.87137        14.30190         0.52276
C          4.97492        17.07232        -0.06073
C          3.85619        19.09590        -0.98808
C          5.02478        18.49464        -0.37916
C          6.09907         2.07535         0.03891
C          6.13389         3.49164         0.17876
C          7.31022         1.38587        -0.17035
C          7.35308         4.21261         0.12435
C          6.18083         6.35706         0.64035
C          6.14363         7.73749         0.78620
C          7.37924         5.64592         0.28592
C          7.40949         8.49632         0.67367
C          6.11164        10.64673         0.86169
C          6.13750        12.13198         1.03090
C          7.30573         9.93373         0.29621
C          7.35069        12.86475         0.65837
C          6.10231        14.99009         0.61876
C          6.12089        16.40785         0.39796
C          7.33899        14.24607         0.69855
C          7.33794        17.17707         0.72297
C          6.17316        19.23657        -0.19317
C          7.36530        18.66845         0.44105
C          8.53354         2.08516        -0.30169
C          8.56040         3.51024        -0.16924
C          9.75048         1.40782        -0.58418
C          9.78551         4.21937        -0.37335
C          8.62832         6.32317         0.14738
C          8.69236         7.78438         0.38775
C          9.80032         5.63726        -0.18879
C          9.82668         8.57172        -0.16119
C          8.54686        10.68895        -0.08032
C          8.55399        12.16934         0.12169
C          9.82583         9.94710        -0.22747
C          9.85645        12.88056         0.06284
C          8.64224        14.96038         0.66834
C          8.64910        16.45028         0.74697
C          9.85589        14.24438         0.20316
C          9.89850        17.18661         0.41093
C          8.67851        19.33374         0.31276
C          9.88143        18.65546         0.39782
C         10.93037         2.11170        -0.82676
C         10.96201         3.51881        -0.75039
C         12.16452         1.34760        -1.23918
C         12.17266         4.27045        -1.26475
C         11.11545         6.37443        -0.11182
C         10.99428         7.80326        -0.59833
C         12.28695         5.68478        -0.75672
C         12.28025         8.56382        -0.87310
C         11.04850        10.70936        -0.45483
C         11.05820        12.13558        -0.29180
C         12.26411        10.01923        -0.68264
C         12.29392        12.83924        -0.39814
C         10.99889        15.06195        -0.34794
C         11.04520        16.49345         0.16606
C         12.31499        14.31060        -0.31968
C         12.37461        17.17080         0.35366
C         11.13033        19.34721         0.25968
C         12.35293        18.67517         0.17496
C         13.44465         2.10352        -0.97007
C         13.46699         3.51560        -1.06569
C         14.59920         1.38906        -0.65019
C         14.69871         4.23178        -1.08383
C         13.49655         6.37770        -0.87522
C         13.54914         7.82319        -0.79370
C         14.72496         5.63881        -1.07611
C         14.75510         8.55578        -0.80332
C         13.51375        10.70809        -0.73536
C         13.49038        12.13154        -0.63436
C         14.73963         9.97848        -0.84379
C         14.75315        12.88016        -0.80072
C         13.48460        15.00686        -0.38609
C         13.47613        16.49618        -0.42779
C         14.79885        14.28146        -0.24265
C         14.74262        17.25638        -0.61958
C         13.57465        19.36028         0.03817
C         14.81292        18.69856        -0.23338
C         15.85754         2.03751        -0.56274
C         15.94886         3.42926        -1.06053
C         16.99989         1.38818        -0.11660
C         17.29635         4.12837        -1.00699
C         15.99703         6.39266        -1.16800
C         16.03230         7.84186        -0.82471
C         17.29908         5.63151        -1.12978
C         17.22556         8.49677        -0.57315
C         16.08872        10.64997        -1.09774
C         16.06719        12.16697        -0.94410
C         17.15559         9.98034        -0.22013
C         17.31650        12.89006        -0.56814
C         16.03331        15.01158        -0.74266
C         16.03434        16.49675        -0.76652
C         17.31117        14.28185        -0.50563
C         17.22347        17.21190        -0.17315
C         16.01412        19.36810        -0.32763
C         17.30262        18.65951        -0.69857
C         18.23111         2.08127         0.10444
C         18.39035         3.44777        -0.27252
C         19.27784         1.42831         0.80536
C         19.55783         4.14151         0.09978
C         18.57151         6.35926        -0.78963
C         18.50292         7.81320        -0.49629
C         19.76792         5.55579        -0.31611
C         19.63989         8.50136        -0.07931
C         18.49721        10.68901        -0.26090
C         18.53822        12.14093        -0.33874
C         19.64243         9.95318        -0.02484
C         19.74178        12.83562        -0.21437
C         18.51413        15.04528        -0.34319
C         18.52314        16.44415        -0.22992
C         19.78180        14.30339        -0.31541
C         19.68375        17.16981         0.16571
C         18.48421        19.33586        -0.06414
C         19.58980        18.61033         0.36440
C         20.40190         2.12659         1.20249
C         20.54861         3.49484         0.87871
C         21.71126         4.22335         1.34896
C         20.96858         6.28984         0.22466
C         20.91271         7.80507         0.25962
C         21.90490         5.53376         1.07933
C         21.86573         8.56563         1.10944
C         20.95781        10.62486         0.15430
C         21.02108        12.13587         0.01295
C         21.93005         9.90067         1.01121
C         22.11328        12.89593         0.66478
C         21.03827        15.06227         0.17210
C         20.89247        16.49559         0.51520
C         22.10161        14.23526         0.78338
C         21.92797        17.20482         1.13373
C         20.69717        19.28736         0.97559
C         21.82428        18.59404         1.36019
O         21.48715        11.23938        -1.05896
O          6.17278        10.21511        -0.56364
O          8.28854        11.57713        -1.21896
O         20.81458        14.79123        -1.23978
O          4.50440         5.60835         2.30872
O          8.86205        15.65537         1.97236
O         16.83358         3.49750        -2.23329
O          8.34865         8.21825         1.76490
O          5.49446        12.63617         2.22491
O         16.09868        15.75580        -2.01102
O          4.16011        10.45411         2.31641
O         15.38524        12.76538        -2.11242
O          2.85863         8.27291         2.56972
O         19.59528         5.87567        -1.72408
O         11.39443         8.05680        -1.96199
O          3.99585         4.09873        -0.86756
O         13.79542        17.05819        -1.73130
O          7.14362        18.12996         1.81244
O         16.76029         6.09176        -2.39936
O         21.61616         7.09434        -0.81226
O         16.44840        10.36998        -2.46588
H         15.98887        11.03249        -3.02948
O         15.01226        14.13659         1.19700
H         14.80775        14.99279         1.63196
O         17.47076        18.65421        -2.13758
H         16.80070        18.05153        -2.52677
O         16.67768        10.09353         1.15387
H         17.35277         9.70353         1.74710
O         16.87861        17.29271         1.24707
H         17.56236        17.84475         1.68527
O         10.64785        15.23410        -1.76840
H         10.78150        14.37306        -2.21984
O         11.95546         4.37039        -2.72240
H         12.66291         4.94429        -3.08800
O         12.18461         0.05314        -0.63106
H         12.13525         0.16657         0.33983
O         11.43111         6.50423         1.32040
H         11.33129         5.62165         1.73512
O         12.73792        16.91514         1.75621
H         12.00581        17.24566         2.32040
H          0.35709         1.39210         1.23477
H          0.28418         3.84208         1.48926
H          2.44072         0.19362         0.65852
H          0.24433         5.83210         0.68508
H          0.22709         8.24831         0.64726
H          0.67528         9.87596        -0.60428
H          0.72312        12.23920        -1.22476
H          0.60744        14.25060        -1.34156
H          0.69195        16.67116        -1.80990
H          1.87114        18.84620        -1.74407
H          4.87903         0.26757         0.15224
H          3.88942        20.17075        -1.21906
H          7.30260         0.29055        -0.26832
H          6.21850        20.27027        -0.56843
H          9.75367         0.31148        -0.67116
H          8.68899        20.42284         0.15221
H         12.11131         1.17351        -2.34957
H         11.11219        20.44362         0.16341
H         14.52914         0.30625        -0.46944
H         13.57396        20.45984         0.09943
H         16.93203         0.33473         0.19363
H         16.04427        20.45209        -0.13499
H         19.16265         0.36710         1.06773
H         18.48544        20.43192         0.03838
H         21.19248         1.62560         1.77898
H         22.44831         3.67247         1.95148
H         22.81824         6.03637         1.42609
H         22.59115         8.01962         1.72900
H         22.69264        10.46011         1.57160
H         22.97172        12.33253         1.05699
H         22.92300        14.73499         1.31687
H         22.85830        16.69454         1.41679
H         20.63346        20.37448         1.12595
H         22.66693        19.12485         1.82423
