         640
 CSIRO Nanostructure Databank - Neutral Graphene Oxide Data Set
C         23.00208        27.40097        -0.97752
C         22.99117        28.77584        -0.83616
C         22.96081        31.62414        -0.04642
C         22.95679        33.00264         0.28909
C         22.96451        35.93782         0.69922
C         22.99410        37.32369         0.79070
C         22.97752        40.25859         0.37444
C         22.99175        41.60279         0.19213
C         22.99901        44.56670         0.35123
C         23.01029        45.93720         0.39946
C         25.45065        24.58357        -1.04836
C         24.25698        25.26848        -1.06246
C         25.45800        27.40509        -0.89986
C         24.22656        26.68696        -0.97128
C         25.45409        28.84600        -0.78208
C         24.18630        29.52181        -0.68548
C         25.41134        31.57048         0.00801
C         24.13000        30.91592        -0.29652
C         25.40002        33.02247         0.43850
C         24.12058        33.74171         0.45342
C         25.39343        35.89662         0.48389
C         24.15254        35.19394         0.54311
C         25.40877        37.32454         0.52597
C         24.19816        38.03736         0.67914
C         25.46002        40.23147         0.45825
C         24.19455        39.53721         0.89934
C         25.44526        41.65198         0.33838
C         24.20937        42.37520         0.29377
C         25.44516        44.51725         0.17041
C         24.21464        43.80836         0.25635
C         25.45971        45.95631         0.16897
C         24.23531        46.67041         0.31870
C         25.46440        48.77371         0.28674
C         24.26845        48.08539         0.38234
C         27.97671        23.13054        -0.76405
C         27.95632        24.54750        -0.88279
C         26.69850        25.27130        -0.99205
C         27.93019        27.44560        -1.08278
C         26.67556        26.68676        -0.96330
C         27.93731        28.89637        -0.80341
C         26.68494        29.55664        -0.72008
C         27.91180        31.73651        -0.28146
C         26.63133        31.06981        -0.73105
C         27.89684        33.02274         0.18799
C         26.65673        33.77453         0.33460
C         27.90302        35.88653         0.42162
C         26.64007        35.15865         0.39211
C         27.86290        37.33513         0.34255
C         26.67329        38.04380         0.38962
C         27.87614        40.22974         0.15267
C         26.66555        39.50816         0.31852
C         27.90211        41.64876         0.19757
C         26.67712        42.36918         0.23649
C         27.92014        44.48303         0.07066
C         26.68819        43.79418         0.14034
C         27.95691        45.95379        -0.26835
C         26.67398        46.68244         0.04619
C         27.96744        48.80883        -0.08188
C         26.69367        48.08674         0.09554
C         27.99449        50.21758        -0.31626
C         30.40360        23.11036        -0.48107
C         29.15367        22.43969        -0.58151
C         30.41054        24.54080        -0.58549
C         29.19719        25.23182        -0.80422
C         30.45414        27.44389        -0.66147
C         29.24033        26.69184        -1.02171
C         30.42038        28.86968        -0.56890
C         29.17103        29.56866        -0.67910
C         30.44623        31.71973        -0.29212
C         29.18324        31.07204        -0.79157
C         30.38796        33.21930        -0.21312
C         29.17565        33.70671         0.60929
C         30.36555        35.93645         0.91834
C         29.09927        35.21544         0.53615
C         30.40566        37.37190         0.48195
C         29.14837        38.01229         0.08764
C         30.40887        40.23173         0.19223
C         29.14628        39.52204        -0.04745
C         30.39079        41.64788         0.21401
C         29.14486        42.36351         0.17353
C         30.40432        44.50506         0.15070
C         29.14360        43.78093         0.15383
C         30.43288        45.91725         0.12155
C         29.14883        46.66450         0.37201
C         30.42972        48.77974        -0.27596
C         29.18489        48.11908        -0.04136
C         30.43741        50.20705        -0.50919
C         29.17821        50.89009        -0.49177
C         32.91192        20.28561        -0.41353
C         31.70939        20.97857        -0.29492
C         32.87805        23.14851        -0.23053
C         31.62711        22.38661        -0.31224
C         32.87317        24.60166        -0.47218
C         31.65931        25.28225        -0.54060
C         32.87685        27.44129        -0.31252
C         31.65427        26.73208        -0.51981
C         32.86754        28.86169        -0.13515
C         31.63611        29.57115        -0.27967
C         32.87463        31.69984         0.18081
C         31.62474        31.01405        -0.13032
C         32.88287        33.11461         0.32777
C         31.65916        33.86098         0.26947
C         32.86724        35.94066         0.69480
C         31.64259        35.21402         0.54889
C         32.85115        37.36220         0.75845
C         31.59143        38.07062         0.53722
C         32.81364        40.24322         0.58487
C         31.60876        39.51831         0.38564
C         32.82505        41.63040         0.45378
C         31.62035        42.35010         0.25988
C         32.85012        44.48876         0.01558
C         31.62643        43.78907         0.16228
C         32.86076        45.87099        -0.14684
C         31.64655        46.60769        -0.05083
C         32.89270        48.70051        -0.50923
C         31.65442        48.04679        -0.25957
C         32.87688        50.10446        -0.94845
C         31.64555        50.88486        -0.79379
C         32.91979        52.98851        -1.00502
C         31.74990        52.31963        -0.83879
C         35.45015        18.83952        -0.95154
C         35.37724        20.28134        -0.81130
C         34.15684        20.94139        -0.58755
C         35.31475        23.17065        -0.99573
C         34.18778        22.40156        -0.38709
C         35.33961        24.62495        -0.73550
C         34.13091        25.30071        -0.49389
C         35.31312        27.41756        -0.04610
C         34.11105        26.73698        -0.30879
C         35.31688        28.80773         0.26766
C         34.08971        29.53507         0.19189
C         35.27912        31.66267         0.71072
C         34.08205        30.97469         0.37383
C         35.31440        33.07084         0.77084
C         34.09853        33.80345         0.60079
C         35.31862        35.93833         0.88788
C         34.09642        35.22710         0.71830
C         35.28462        37.34872         0.96169
C         34.06851        38.05831         0.88705
C         35.31426        40.24252         0.55865
C         34.06564        39.56071         1.07739
C         35.34136        41.60103         0.45373
C         34.09105        42.41679         0.69377
C         35.36835        44.48268         0.07439
C         34.11330        43.68318        -0.17018
C         35.37778        45.85273        -0.09519
C         34.13661        46.52904        -0.61790
C         35.36216        48.74331        -0.39804
C         34.13394        48.02804        -0.48287
C         35.39629        50.15532        -0.55843
C         34.22396        50.83035        -1.12467
C         35.42741        53.05211        -0.74028
C         34.24008        52.34044        -1.36468
C         35.49002        54.42668        -0.87695
C         37.82688        18.92805        -0.28369
C         36.62005        18.17987        -0.79564
C         37.81859        20.34168        -0.82278
C         36.62923        21.01022        -0.97537
C         37.84540        23.27996        -1.70702
C         36.57291        22.45273        -1.38007
C         37.82439        24.70833        -1.03890
C         36.60844        25.28863        -0.65562
C         37.82952        27.36956         0.27236
C         36.55364        26.62253         0.00559
C         37.78432        28.82829         0.49239
C         36.55907        29.48526         0.57911
C         37.78026        31.65117         1.08852
C         36.48500        30.88251         1.16774
C         37.80067        33.05332         1.12052
C         36.55252        33.79134         0.97860
C         37.80335        35.92130         1.03939
C         36.55787        35.19612         0.99282
C         37.81459        37.32795         0.94377
C         36.55477        38.13846         1.15416
C         37.82946        40.18465         0.42155
C         36.53764        39.40612         0.28598
C         37.82003        41.63121         0.38816
C         36.58595        42.33882         0.33812
C         37.80319        44.49190         0.42514
C         36.58563        43.75946         0.30463
C         37.80537        45.91599         0.33872
C         36.58803        46.60604         0.05404
C         37.77555        48.73333         0.22560
C         36.58711        48.02302        -0.06091
C         37.69980        50.19591         0.40816
C         36.52723        50.92929        -0.14061
C         37.68469        53.11708         0.43571
C         36.54627        52.32590        -0.21080
C         37.78279        54.54236        -0.05622
C         36.67265        55.15819        -0.58172
C         40.32815        16.09447         0.01000
C         39.17198        16.78083        -0.17589
C         40.34863        18.88130        -0.65647
C         39.14587        18.19935        -0.43272
C         40.36387        20.28112        -1.04338
C         39.05411        20.93681        -1.42548
C         40.31499        22.96276        -1.72465
C         39.09807        22.44797        -1.40296
C         40.30992        25.09659        -1.34820
C         39.03950        25.50802        -0.86941
C         40.29371        27.45314         0.01204
C         39.07682        26.75720        -0.19352
C         40.26326        28.82438         0.49060
C         39.04658        29.48887         0.66626
C         40.26697        31.66961         0.90939
C         39.03880        30.84485         1.33884
C         40.28034        33.01471         1.64613
C         39.03055        33.79126         1.25164
C         40.27195        35.94865         1.10022
C         39.04559        35.19973         1.13919
C         40.27058        37.32618         0.84069
C         39.02404        38.02970         0.76574
C         40.28606        40.14760         0.36236
C         39.00438        39.45793         0.52673
C         40.28954        41.65206         0.40843
C         39.01850        42.37056         0.52614
C         40.25336        44.52950         0.72645
C         39.03242        43.78972         0.59855
C         40.26540        45.93056         0.66759
C         39.02777        46.64046         0.47333
C         40.24475        48.80097         0.63348
C         39.00282        48.06091         0.45402
C         40.24614        50.18453         0.66779
C         38.98545        50.94131         0.66978
C         40.22380        53.08392         0.39058
C         39.02213        52.39762         0.41619
C         40.21980        54.52992         0.23330
C         39.04610        55.24081         0.07075
C         40.25639        57.35901        -0.21463
C         39.09620        56.70232        -0.02582
C         42.84347        16.03954        -0.20349
C         41.62389        16.83147         0.17198
C         42.81882        18.80186        -0.77406
C         41.60315        18.18723        -0.48985
C         42.83394        20.19594        -1.23931
C         41.56405        20.93770        -1.23862
C         42.74383        23.15166        -1.20307
C         41.60779        22.37781        -1.42501
C         42.70590        24.57807        -0.70656
C         41.52824        25.49647        -0.78265
C         42.78262        27.40648         0.18596
C         41.53267        26.76186        -0.13846
C         42.77278        28.80142         0.51230
C         41.53721        29.51564         0.68083
C         42.79472        31.61842         0.94489
C         41.56440        30.89372         0.95186
C         42.81866        33.04151         1.07030
C         41.59356        33.76998         1.45860
C         42.80520        35.93420         0.84149
C         41.56770        35.25984         1.27276
C         42.77952        37.33486         0.69136
C         41.53269        38.05110         0.72937
C         42.77745        40.18218         0.56636
C         41.54783        39.43686         0.60847
C         42.80017        41.59600         0.67472
C         41.53029        42.31204         0.87891
C         42.79480        44.51324         0.84350
C         41.51393        43.81041         0.99761
C         42.77979        45.92897         0.78523
C         41.51210        46.66236         0.76728
C         42.73895        48.80627         0.71555
C         41.50178        48.06330         0.73555
C         42.75487        50.18895         0.63652
C         41.50317        50.95755         0.97623
C         42.71978        53.05609         0.38670
C         41.50344        52.39445         0.51305
C         42.76765        54.49988         0.24259
C         41.49819        55.30334         0.43470
C         42.79319        57.34296        -0.09750
C         41.53069        56.57532        -0.41289
C         43.99590        16.66094        -0.53902
C         45.29534        18.81939        -0.68564
C         44.06292        18.10496        -0.67742
C         45.34920        20.25320        -0.80051
C         44.12959        20.96588        -1.24936
C         45.34084        23.18027        -0.79937
C         44.07849        22.47389        -1.21662
C         45.30218        24.58135        -0.36057
C         43.99924        25.24620        -0.20166
C         45.24378        27.38314         0.20256
C         43.99851        26.70567         0.04855
C         45.24583        28.79295         0.42364
C         44.01168        29.49803         0.58243
C         45.25139        31.63416         0.67255
C         44.02233        30.91576         0.75162
C         45.24340        33.05681         0.67073
C         44.01403        33.76315         0.84952
C         45.22714        35.90770         0.45571
C         44.01623        35.20960         0.74461
C         45.21909        37.33159         0.35311
C         43.99808        38.04524         0.48850
C         45.22989        40.18850         0.39215
C         44.00357        39.46984         0.46390
C         45.22563        41.59076         0.57869
C         44.01549        42.31494         0.72950
C         45.22261        44.50222         0.67552
C         44.00929        43.78100         0.79847
C         45.22693        45.91432         0.58486
C         44.00582        46.61795         0.70120
C         45.24185        48.77701         0.36224
C         44.04424        48.09237         0.96352
C         45.20634        50.17543         0.19425
C         43.98219        50.90696         0.40716
C         45.19908        53.00648         0.04271
C         43.97939        52.31536         0.32107
C         45.27971        54.49957         0.27666
C         43.94601        55.19877         0.17969
C         43.92569        56.65765         0.16484
C         47.69351        18.80224        -0.22608
C         46.51858        18.12664        -0.42930
C         47.75142        20.22624        -0.25762
C         46.54497        20.95503        -0.56118
C         47.74859        23.10780        -0.24838
C         46.57445        22.40833        -0.51995
C         47.75035        24.53305        -0.08278
C         46.49878        25.25189        -0.09723
C         47.71499        27.37037         0.28473
C         46.48671        26.67523         0.14598
C         47.72046        28.79545         0.39729
C         46.48405        29.50145         0.46728
C         47.71477        31.63858         0.45557
C         46.48552        30.92515         0.54410
C         47.70080        33.06337         0.37380
C         46.46751        33.76991         0.46485
C         47.67184        35.85972        -0.00947
C         46.46253        35.18500         0.32804
C         47.61505        37.30654        -0.31022
C         46.41843        38.06435         0.08220
C         47.70570        40.19170         0.02805
C         46.45345        39.46476         0.14992
C         47.73741        41.59523         0.26920
C         46.51688        42.27822         0.70371
C         47.73599        44.50481         0.33780
C         46.51474        43.80501         0.75028
C         47.68581        45.92393         0.16007
C         46.47193        46.62756         0.34194
C         47.62843        48.74958        -0.24033
C         46.44037        48.05254         0.16687
C         47.57161        50.14254        -0.47257
C         46.38600        50.86671        -0.22973
C         47.57118        53.01535        -0.69980
C         46.36172        52.30548        -0.30833
C         47.46747        54.45245        -0.89941
C         46.36377        55.14176        -0.54830
C         50.12785        20.24730         0.42149
C         48.97044        20.91463        -0.00704
C         50.22673        23.09402         0.32173
C         49.07185        22.38312        -0.34602
C         50.19502        24.51608         0.41822
C         48.96531        25.23217         0.19075
C         50.18270        27.36972         0.47446
C         48.95649        26.65301         0.32036
C         50.19156        28.79496         0.44357
C         48.95772        29.50761         0.42181
C         50.18179        31.66578         0.36708
C         48.95544        30.93733         0.41174
C         50.16598        33.07152         0.21261
C         48.91882        33.77178         0.15947
C         50.14527        35.84612        -0.60543
C         48.88795        35.17311        -0.08654
C         50.17969        37.33641        -0.36872
C         48.91736        38.06983        -0.47229
C         50.16457        40.19873        -0.17854
C         48.91803        39.51125        -0.20413
C         50.16180        41.62708        -0.06929
C         48.93757        42.32998         0.14783
C         50.14544        44.48669        -0.12428
C         48.92611        43.77883         0.16204
C         50.13050        45.91565        -0.25790
C         48.90335        46.63200        -0.15751
C         50.09560        48.75554        -0.60730
C         48.87102        48.03705        -0.36016
C         50.06994        50.15523        -0.85861
C         48.74204        50.82612        -1.12421
C         50.00173        52.98789        -1.19933
C         48.75412        52.32561        -0.94559
C         51.29959        20.93925         0.71864
C         52.60211        22.98848         1.26351
C         51.35456        22.34880         0.69268
C         52.57796        24.51813         1.22045
C         51.36899        25.24076         0.78540
C         52.66224        27.37185         0.68804
C         51.40347        26.65002         0.68684
C         52.66296        28.81641         0.51563
C         51.43647        29.51750         0.45337
C         52.65483        31.65782         0.46229
C         51.43984        30.95098         0.41851
C         52.65527        33.15282         0.66721
C         51.39911        33.82557         0.17463
C         52.64719        35.92644        -0.16562
C         51.40777        35.16926        -0.12679
C         52.63125        37.30166        -0.34905
C         51.37737        38.03270        -0.34484
C         52.63143        40.19377        -0.34371
C         51.38927        39.48033        -0.31338
C         52.62636        41.62095        -0.28935
C         51.38174        42.34771        -0.19759
C         52.60001        44.46829        -0.69793
C         51.34593        43.76276        -0.26992
C         52.59327        45.95640        -0.48999
C         51.36526        46.63702        -0.44805
C         52.56021        48.77988        -0.80268
C         51.33933        48.06733        -0.58788
C         52.52726        50.18948        -1.02475
C         51.26127        50.87253        -1.06231
C         51.18190        52.30058        -1.28206
C         55.04691        23.11163         0.59876
C         53.86549        22.42155         0.65005
C         55.14605        24.50272         0.87202
C         53.90139        25.26646         1.10536
C         55.15896        27.35575         0.37886
C         53.86563        26.68473         0.74674
C         55.14501        28.84857         0.60989
C         53.89625        29.53838         0.51053
C         55.13515        31.69250         0.46041
C         53.88911        30.96724         0.49023
C         55.15216        33.11367         0.27279
C         53.92128        33.83855         0.20533
C         55.15524        35.93702        -0.17328
C         53.91126        35.20835        -0.05421
C         55.15183        37.33230        -0.36684
C         53.87972        38.03723        -0.75682
C         55.09460        40.20950        -0.37830
C         53.87480        39.50871        -0.42614
C         55.09162        41.64043        -0.28791
C         53.86097        42.31551        -0.26395
C         55.10813        44.54983        -0.12731
C         53.82157        43.78646        -0.13604
C         55.07423        45.98239        -0.50363
C         53.83412        46.66077        -0.58912
C         55.02622        48.78168        -1.03709
C         53.81149        48.08425        -0.79900
C         54.96131        50.19008        -1.24263
C         53.76239        50.86636        -1.23041
C         57.66126        24.54235         0.98546
C         56.38775        25.22215         0.89710
C         57.59893        27.36022         1.17730
C         56.36564        26.62322         0.89858
C         57.59795        28.88167         1.06090
C         56.33468        29.56493         0.70481
C         57.61479        31.68705         0.50200
C         56.35672        30.98757         0.56281
C         57.61401        33.08961         0.31797
C         56.39663        33.79809         0.16105
C         57.60874        35.93867        -0.21152
C         56.40022        35.23426        -0.05925
C         57.60935        37.35439        -0.30887
C         56.36470        38.06607        -0.36331
C         57.57937        40.22180        -0.42187
C         56.35523        39.49909        -0.40540
C         57.59048        41.65328        -0.40734
C         56.34344        42.38682        -0.29858
C         57.63115        44.56018        -0.15253
C         56.35218        43.77757        -0.25471
C         57.54063        45.96450        -0.70779
C         56.29946        46.66584        -0.74912
C         57.50320        48.70400        -1.39515
C         56.27710        48.06378        -1.06980
C         58.85046        25.23077         1.01450
C         60.06500        27.40638         1.05933
C         58.88221        26.65480         1.07922
C         60.06512        28.80088         0.92748
C         58.88036        29.56178         0.81392
C         60.07809        31.67194         0.24642
C         58.85731        30.95407         0.53588
C         60.11278        33.01852         0.13911
C         58.90898        33.87099         0.43687
C         60.11546        35.99820        -0.19260
C         58.88915        35.15365        -0.41083
C         60.08038        37.34537        -0.22599
C         58.83930        38.08723        -0.35473
C         60.04109        40.24613        -0.58180
C         58.82594        39.49646        -0.44973
C         60.03635        41.60931        -0.66058
C         58.82248        42.36734        -0.54565
C         60.00674        44.52864        -0.93769
C         58.84506        43.78895        -0.60465
C         59.96908        45.89792        -1.10988
C         58.73084        46.62530        -1.05782
C         58.69008        48.00422        -1.41315
O         29.18638        38.65537        -1.24090
O         28.67167        27.10694        -2.31531
O         38.06126        50.58618         1.79659
O         40.40844        40.96430        -0.87781
O         41.41520        42.93562         2.19632
O         43.11262        24.50306         0.72565
O         37.16865        26.60506         1.34782
O         25.55964        31.90543         1.41257
O         33.75828        22.82180         0.93144
O         35.52963        22.73197        -2.38964
O         46.67269        43.00466         1.97396
O         33.58166        50.17704        -2.26304
O         54.32703        44.28616         1.12783
O         40.37177        24.18819        -2.38734
O         44.94521        23.06063        -2.26046
O         41.79052        34.65925         2.62450
O         48.10885        37.65493        -1.66256
O         43.59048        20.40399        -2.49328
O         57.50758        28.23947         2.37852
O         53.22003        25.05702         2.42047
O         52.64397        22.57903         2.66234
H         53.10797        23.30623         3.14309
O         36.45566        38.94524        -1.09365
H         36.48589        39.73163        -1.67818
O         53.85431        37.99774        -2.24030
H         53.69985        37.06536        -2.50481
O         49.40494        22.42311        -1.79128
H         48.65361        22.01450        -2.27364
O         37.84032        23.48760        -3.13903
H         36.89305        23.56283        -3.40726
O         34.09299        39.81068         2.53037
H         34.95514        39.43827         2.85107
O         48.52022        50.63931        -2.58150
H         49.25933        51.09265        -3.04117
O         36.59116        38.59345         2.54955
H         36.70846        37.80371         3.11931
O         28.15732        46.03328        -1.71248
H         27.40134        45.58653        -2.14764
O         59.01535        34.30712         1.82560
H         59.01595        33.50728         2.39231
O         24.14664        39.69451         2.36874
H         24.15793        40.65744         2.55667
O         37.65086        19.03377         1.18095
H         36.77180        19.44121         1.33804
O         30.15878        33.73609        -1.57518
H         31.02484        33.76351        -2.03506
O         36.28173        30.65914         2.61428
H         37.15105        30.33214         2.96165
O         40.17503        32.78550         3.07815
H         40.60083        33.56708         3.51007
O         29.44547        33.33417         1.99668
H         28.59092        33.33393         2.47852
O         28.92022        46.63315         1.81191
H         29.68716        47.05722         2.25020
O         52.65163        33.32442         2.13513
H         52.69764        34.28727         2.31710
O         34.17218        46.26341        -2.07930
H         33.53422        46.87772        -2.50365
O         38.91252        20.61819        -2.86812
H         38.43853        21.37138        -3.29172
O         41.73947        17.09185         1.62847
H         40.92316        17.56649         1.89733
O         39.05237        30.49042         2.75394
H         39.33723        31.28947         3.26413
O         58.90500        34.71336        -1.80228
H         58.88174        35.51227        -2.36951
O         45.69659        54.66106         1.68140
H         46.57520        54.23522         1.77460
O         40.07574        32.01628        -0.49261
H         40.09157        31.18624        -1.01464
O         57.82946        44.75851         1.31086
H         57.73833        43.88003         1.73862
O         30.37476        35.94154         2.39131
H         30.27653        34.99626         2.66245
O         41.49022        55.73044         1.82783
H         41.49408        54.92635         2.38855
O         37.32246        53.21715         1.85937
H         37.42682        52.30444         2.23025
O         29.14077        31.33513        -2.25510
H         29.36495        32.29788        -2.35389
O         34.14709        43.26347        -1.56172
H         34.17621        44.08775        -2.10162
O         44.23746        48.19562         2.43128
H         44.29109        49.15164         2.64795
O         26.42095        31.45088        -2.12629
H         27.28376        31.28526        -2.58570
O         52.70883        44.27311        -2.15594
H         51.90014        44.64502        -2.56755
O         34.09058        42.81811         2.08677
H         34.04699        41.98624         2.61461
O         41.52462        51.06572         2.45757
H         41.34120        50.17157         2.81897
O         41.58936        56.16941        -1.81024
H         41.58663        56.97946        -2.36072
O         55.26888        27.22159        -1.10344
H         54.50541        27.70029        -1.49310
O         34.38847        52.55012        -2.80124
H         33.90083        51.81113        -3.23547
O         50.10289        35.68844        -2.06904
H         49.35401        36.25554        -2.37698
H         22.05696        26.84747        -1.07227
H         22.02380        29.29541        -0.80995
H         21.98364        31.14415        -0.19682
H         21.97958        33.50320         0.33741
H         21.99947        35.42120         0.78709
H         22.05112        37.85954         0.96384
H         22.02989        39.71333         0.26026
H         22.06089        42.11303        -0.09519
H         22.03861        44.03836         0.42423
H         22.06649        46.49232         0.50284
H         25.42712        23.48747        -1.10144
H         23.30706        24.71883        -1.12934
H         25.45244        49.87003         0.35648
H         23.32638        48.63735         0.51353
H         27.04165        22.55861        -0.81935
H         27.05322        50.78214        -0.36239
H         29.11554        21.34511        -0.50437
H         29.14764        51.97255        -0.67400
H         32.87482        19.18799        -0.44583
H         30.78509        20.38581        -0.25318
H         32.88664        54.08755        -1.01634
H         30.83965        52.91203        -0.66607
H         34.53773        18.28601        -1.21649
H         34.65276        54.96848        -1.33682
H         36.65631        17.09075        -0.93466
H         36.70943        56.21597        -0.87741
H         40.30806        15.01335         0.21241
H         38.21890        16.23402        -0.14044
H         40.27606        58.45694        -0.29789
H         38.15762        57.26619         0.07693
H         42.80538        14.94374        -0.11365
H         42.79218        58.44317        -0.13994
H         44.89118        16.05805        -0.74753
H         44.86297        57.19640         0.36724
H         48.60517        18.22223        -0.03452
H         46.52261        17.03067        -0.37238
H         48.28074        54.97144        -1.42696
H         46.30403        56.21830        -0.76384
H         50.11399        19.16212         0.58990
H         50.02727        54.08458        -1.27076
H         52.16752        20.37658         1.08691
H         52.10482        52.86923        -1.45553
H         55.95246        22.57694         0.27439
H         53.87275        21.35062         0.40130
H         55.88338        50.76244        -1.40997
H         53.77393        51.95252        -1.39059
H         57.67645        23.44385         0.98460
H         57.51452        49.77100        -1.65469
H         59.80288        24.68026         1.01277
H         61.02933        26.87739         1.07613
H         61.03865        29.30466         0.85536
H         61.00197        31.09930         0.08293
H         61.06751        33.51252        -0.09035
H         61.08509        35.49348        -0.07472
H         61.02174        37.89941        -0.10656
H         61.00222        39.71997        -0.64693
H         60.99406        42.13381        -0.77295
H         60.95835        44.00826        -1.11489
H         60.88620        46.44045        -1.38094
H         59.62613        48.51228        -1.68662
