         344
 CSIRO Nanostructure Databank - Neutral Graphene Oxide Data Set
C          1.19228         3.51454        -0.71713
C          0.00482         4.22661        -0.84153
C          1.23377         6.33810        -0.98126
C          0.01298         5.61847        -0.97235
C          1.27815         7.78407        -1.08318
C          0.12707         8.56810        -1.40386
C          1.46345        10.69346        -1.39510
C          0.17913         9.92441        -1.52406
C          1.31864        12.09968        -0.82793
C          0.08554        12.78797        -0.84871
C          1.18982        14.88231        -0.27155
C          0.02249        14.14242        -0.57285
C          1.16521        16.32219        -0.11679
C         -0.03666        17.06067        -0.23929
C          1.13682        19.17089         0.11674
C         -0.05095        18.43692        -0.13404
C          1.12512        20.63862         0.14458
C         -0.07551        21.36105        -0.09753
C          1.09139        23.49937         0.00025
C         -0.09914        22.73942        -0.13174
C          1.09656        24.94197        -0.08647
C         -0.09548        25.69483        -0.30424
C          1.15599        27.78778        -0.27253
C         -0.06854        27.06814        -0.38394
C          1.18750        29.21294        -0.39628
C          3.66312         3.47350        -0.60241
C          2.44308         4.19362        -0.72938
C          3.74649         6.33903        -1.01048
C          2.44496         5.61013        -0.86475
C          3.65167         7.72754        -0.44790
C          2.49622         8.46832        -0.72630
C          3.71596        10.57714        -0.26515
C          2.54233         9.90430        -0.69208
C          3.81135        12.08429        -0.48591
C          2.47275        12.78905        -0.44201
C          3.62498        14.91261         0.17961
C          2.42571        14.18595        -0.16570
C          3.60754        16.30583         0.32019
C          2.37213        17.03145         0.14115
C          3.56371        19.16225         0.68092
C          2.33931        18.45000         0.26203
C          3.53511        20.66226         0.78854
C          2.31009        21.37240         0.34319
C          3.54803        23.52496         0.28267
C          2.31394        22.79508         0.20321
C          3.54090        24.91257         0.25175
C          2.32262        25.64300         0.05535
C          3.60282        27.79551         0.01375
C          2.35913        27.07249        -0.05226
C          3.60749        29.21103        -0.12783
C          2.37161        29.90230        -0.32536
C          6.11530         3.43517        -0.24174
C          4.91057         4.14219        -0.45852
C          6.14794         6.26239        -0.29180
C          4.94917         5.57278        -0.53673
C          6.14069         7.77220        -0.43863
C          4.83595         8.34187         0.23623
C          6.02712        10.53786         0.68385
C          4.80902         9.85856         0.21151
C          6.04499        12.05423         0.90451
C          4.83683        12.78677         0.36900
C          6.04357        14.87845         1.02788
C          4.82581        14.14917         0.48538
C          6.06644        16.33898         0.65881
C          4.85650        17.03654         0.53424
C          6.07544        19.17604         0.57236
C          4.86434        18.46136         0.58374
C          6.09522        20.63192         0.55214
C          4.84690        21.43233         0.93478
C          6.11092        23.48089         0.33142
C          4.82121        22.72398         0.11805
C          6.09923        24.92839         0.57296
C          4.78365        25.67570         0.51870
C          6.06240        27.81346         0.25421
C          4.83051        27.11885         0.23728
C          6.04644        29.23565         0.11168
C          4.84340        29.90422        -0.05861
C          8.53188         3.41289         0.25733
C          7.33412         4.11755         0.03068
C          8.51942         6.28494         0.47437
C          7.30786         5.55716         0.06628
C          8.56176         7.75082         0.29326
C          7.39091         8.42867         0.08856
C          8.60262        10.61199         0.41210
C          7.34761         9.84745         0.47445
C          8.58490        12.00465         0.42819
C          7.27686        12.72758         0.25515
C          8.53469        14.86004         0.63535
C          7.33580        14.18116         0.64143
C          8.55235        16.31098         0.68529
C          7.30824        17.02621         0.65839
C          8.55685        19.12600         0.44928
C          7.31201        18.44674         0.53347
C          8.52969        20.57522         0.13624
C          7.26097        21.31824         0.29126
C          8.56018        23.52278         0.24157
C          7.30153        22.78574         0.26998
C          8.54292        24.93571         0.24475
C          7.34334        25.68630         0.37938
C          8.56536        27.83653         0.31982
C          7.32629        27.09777         0.32992
C          8.58536        29.26162         0.28219
C          7.31204        30.06170         0.14962
C         11.01071         3.45341         0.12723
C          9.79676         4.02152         0.80151
C         11.05610         6.29643         0.57996
C          9.78966         5.54991         0.77991
C         11.04386         7.73046         0.59284
C          9.81301         8.45138         0.52706
C         11.07027        10.56451         0.41591
C          9.83353         9.86322         0.42629
C         11.03521        12.01624        -0.01808
C          9.79389        12.75564         0.38879
C         11.04450        14.88254         0.46922
C          9.80198        14.15243         0.47276
C         11.05133        16.28721         0.58300
C          9.77916        17.00099         0.62520
C         11.04485        19.14734         0.72197
C          9.76503        18.42218         0.54233
C         11.04651        20.63278         0.61171
C          9.81109        21.34331         0.16782
C         11.04173        23.46556         0.37230
C          9.81428        22.82086         0.26366
C         11.09923        24.92603         0.19489
C          9.79315        25.68682         0.11473
C         11.02351        27.81375         0.53949
C          9.80844        27.13777         0.39270
C         11.03997        29.23458         0.38098
C          9.79876        29.93136         0.27224
C         13.39728         3.54019        -0.39225
C         12.19345         4.17613         0.00926
C         13.48410         6.31930         0.25005
C         12.23648         5.60847         0.30640
C         13.52071         7.72009         0.49900
C         12.28123         8.44412         0.60188
C         13.50429        10.66928         0.89847
C         12.26645         9.87038         0.57402
C         13.56457        11.97447         0.03520
C         12.30431        12.77209         0.20579
C         13.54201        14.89772         0.31073
C         12.30480        14.16058         0.33669
C         13.54897        16.29220         0.47661
C         12.30164        17.00437         0.59632
C         13.55916        19.12931         0.62721
C         12.33481        18.42228         0.62977
C         13.59430        20.60782         0.26662
C         12.31854        21.35223         0.48850
C         13.51594        23.46474         0.76656
C         12.29900        22.73697         0.50389
C         13.29571        24.81474         1.17051
C         12.26418        25.62442         0.74223
C         13.56553        27.79582         0.43704
C         12.30036        27.12401         0.99485
C         13.48330        29.15028        -0.00350
C         12.26773        29.88379         0.13583
C         15.82893         3.54697        -0.72335
C         14.63497         4.21871        -0.38603
C         15.93359         6.30734        -0.03569
C         14.68911         5.62249        -0.04802
C         15.97507         7.70035         0.29806
C         14.78538         8.39259         0.55052
C         16.08000        10.58343         0.44410
C         14.81314         9.86445         0.79577
C         16.05527        12.01432        -0.04457
C         14.81318        12.75431         0.36340
C         16.07700        14.91874         0.23129
C         14.80105        14.18062        -0.11237
C         16.04446        16.27891         0.48304
C         14.80308        17.01776         0.55170
C         16.06491        19.19526         0.98388
C         14.78654        18.42734         0.67227
C         16.05367        20.68257         0.64658
C         14.83670        21.38933         0.64936
C         16.06582        23.55115         0.68988
C         14.81707        22.82087         0.74674
C         16.12379        25.00134         0.53213
C         15.08896        25.86123         0.92337
C         15.91390        27.71319        -0.38920
C         14.83153        27.14370         0.35479
C         15.80419        29.07569        -0.84809
C         14.61605        29.77588        -0.59306
C         18.26320         3.52979        -1.13311
C         17.06513         4.21959        -0.73895
C         18.39421         6.28132        -0.45489
C         17.13202         5.59974        -0.38639
C         18.49175         7.65461        -0.12059
C         17.32617         8.36710         0.51841
C         18.50804        10.51137        -0.01889
C         17.32876         9.83880         0.15062
C         18.57322        12.02168        -0.20999
C         17.34238        12.68929         0.44017
C         18.55367        14.83405         0.28073
C         17.33440        14.19033         0.25667
C         18.54221        16.32898         0.06390
C         17.35734        16.98551         0.80327
C         18.54068        19.18419         0.15946
C         17.29417        18.46057         0.54305
C         18.54094        20.66203         0.51488
C         17.26195        21.39616         0.52837
C         18.50437        23.50326         0.10387
C         17.28629        22.82483         0.46004
C         18.57822        25.00732         0.12769
C         17.23919        25.66381        -0.06744
C         18.24681        27.54540        -1.37365
C         17.12204        26.97949        -0.53387
C         18.14242        29.03198        -1.64260
C         16.92594        29.70269        -1.46530
C         19.45981         4.18693        -1.21636
C         20.78370         6.27645        -1.00307
C         19.55571         5.57996        -0.89497
C         20.85685         7.62565        -0.71002
C         19.71311         8.33628        -0.26094
C         20.93123        10.46269         0.27164
C         19.76882         9.77926        -0.01213
C         20.94694        11.87662         0.51601
C         19.83497        12.65645         0.32886
C         20.98393        14.84400         0.54547
C         19.81733        14.11440         0.40023
C         20.97572        16.27450         0.61587
C         19.84785        17.00655         0.40686
C         21.00541        19.21978        -0.01921
C         19.85304        18.50039         0.66148
C         20.96147        20.53751        -0.27436
C         19.80974        21.37950         0.14601
C         20.75281        23.46852        -0.86527
C         19.70028        22.80902        -0.21815
C         20.69698        24.85626        -1.16580
C         19.67335        25.63586        -0.69787
C         20.72590        27.77446        -1.62772
C         19.62864        27.14794        -0.80008
C         20.52746        28.97741        -2.23969
C         19.27478        29.65919        -2.17497
O          8.95976         6.03117         1.89063
O         19.44733        21.12604         1.57198
O         15.72106        10.33731         1.86459
O          3.32732        19.84036         1.99060
O         14.28177        25.42436         1.97548
O          5.38012        25.31406         1.81447
O         10.94587        20.00012         1.95086
O         10.57822        25.38125        -1.10562
O          9.27553        20.87269        -1.11754
O          6.66769         9.88559         1.85487
O          7.22658        31.03090         1.21127
H          7.17513        30.54662         2.06085
O         19.76482        27.70051         0.53326
H         19.43804        27.02311         1.17937
O         13.69613        20.53637        -1.22285
H         13.67529        21.45647        -1.56479
O         14.73551        14.20926        -1.62727
H         13.89343        13.75571        -1.86216
O          6.09810        12.26476         2.33236
H          6.52207        11.46051         2.72302
O         18.16487        26.88497        -2.67144
H         17.33882        27.17927        -3.10883
O         18.28787        16.52118        -1.37270
H         18.88042        15.91359        -1.86470
O          7.00458        12.67141        -1.19629
H          7.82185        12.94887        -1.66523
O          3.96491         6.52785        -2.49971
H          3.92832         5.63685        -2.91094
O         10.90126        11.94097        -1.49988
H         11.78229        11.63072        -1.83197
O         18.58522        19.19540        -1.30871
H         18.42565        18.26191        -1.61232
O          1.96102        10.88031        -2.76691
H          2.82478        11.36091        -2.70154
O         17.46822        12.44683         1.85974
H         16.61414        12.68053         2.28135
O         19.98033        18.63274         2.09031
H         20.04165        19.59888         2.29097
O          6.11309         8.10995        -1.84413
H          5.38786         7.58836        -2.28077
O          4.99444        21.78983         2.31962
H          4.60296        21.05533         2.84685
O         13.32503        11.06861         2.27333
H         14.22632        11.12405         2.67012
O         13.53307        11.51325        -1.37292
H         14.47843        11.39545        -1.66391
O         16.13607        19.17148         2.47979
H         16.86362        19.77554         2.74738
O         12.33692        27.33261         2.44507
H         13.12303        26.83973         2.77839
O         18.63644        12.30462        -1.63074
H         17.80155        11.95493        -2.02859
O          4.81009        22.28441        -1.27788
H          4.85658        23.07573        -1.85394
O          4.84299         7.89553         1.61876
H          5.55169         8.40999         2.07996
O         17.59584        16.81201         2.23054
H         16.99905        17.44276         2.70181
O          5.98682        14.90935         2.48648
H          5.99694        13.96770         2.79248
O          4.28897        12.22782        -1.87729
H          5.27700        12.30217        -1.85191
O         16.09660        11.92887        -1.53026
H         15.83032        12.84385        -1.83700
O          9.86525         3.60725         2.20863
H          9.37643         4.29467         2.71901
O         17.56359         8.30495         1.96274
H         16.96771         8.98175         2.36828
O         18.91865        25.33916         1.56277
H         19.64619        24.73549         1.83021
H          1.17404         2.42195        -0.59614
H         -0.95528         3.69166        -0.82925
H         -0.94445         6.15064        -1.05411
H         -0.83067         8.05951        -1.58734
H         -0.72509        10.45998        -1.84478
H         -0.83995        12.26126        -1.11617
H         -0.95288        14.64327        -0.62940
H         -0.98586        16.54171        -0.42614
H         -1.01229        18.95507        -0.24154
H         -1.02245        20.82457        -0.23870
H         -1.06162        23.24502        -0.28597
H         -1.05835        25.17691        -0.40756
H         -1.00066        27.62781        -0.54894
H          0.24131        29.74977        -0.55745
H          3.63152         2.37645        -0.53483
H          2.38583        30.99720        -0.42547
H          6.10181         2.33541        -0.23390
H          4.84715        31.00047        -0.14846
H          8.50156         2.31302         0.21101
H          7.37122        30.65836        -0.80218
H         11.00788         2.38335        -0.12967
H          9.81041        31.02637         0.16899
H         13.37514         2.47061        -0.64993
H         12.26871        30.95809        -0.10167
H         15.78946         2.48136        -0.99452
H         14.53667        30.82945        -0.90057
H         18.19437         2.46167        -1.38557
H         16.84937        30.76408        -1.74829
H         20.36707         3.65368        -1.53587
H         21.67947         5.73491        -1.34021
H         21.81213         8.15619        -0.82898
H         21.88087         9.91609         0.36424
H         21.89620        12.32353         0.84703
H         21.94813        14.32886         0.65388
H         21.91708        16.78302         0.87199
H         21.89366        18.63987        -0.31425
H         21.81161        21.01953        -0.77880
H         21.65457        22.91407        -1.15453
H         21.52598        25.29798        -1.73634
H         21.73771        27.34384        -1.59663
H         21.36631        29.47520        -2.74908
H         19.21181        30.70383        -2.51424
