         294
 CSIRO Nanostructure Databank - Neutral Graphene Oxide Data Set
C          1.74256         1.91541         1.70484
C          1.69868         3.28748         1.75425
C          2.77697         1.21482         1.03754
C          2.64684         4.08783         0.90116
C          1.46349         6.27537         1.21534
C          1.38013         7.61021         1.16812
C          2.80142         5.56158         1.32541
C          2.65248         8.41969         1.17915
C          1.37061        10.64947         1.21493
C          1.35959        12.10790         1.14293
C          2.49017         9.92151         0.98026
C          2.44446        12.84189         0.78576
C          1.29356        15.14868         1.01240
C          1.33099        16.49321         0.99857
C          2.38673        14.31109         0.37116
C          2.46299        17.24759         0.39900
C          2.60396        18.70652         0.58882
C          3.94331         1.88887         0.58149
C          3.98362         3.37236         0.77826
C          5.04285         1.21467         0.08717
C          5.11671         4.15512         0.20556
C          3.86534         6.28811         0.48751
C          3.62050         7.76440         0.15344
C          4.92175         5.61852        -0.04531
C          4.87650         8.58168        -0.12981
C          3.79623        10.65988         0.83603
C          3.67945        12.10353         0.31538
C          4.80265         9.94848        -0.05776
C          5.03049        12.85010         0.55641
C          3.74501        15.04233         0.63011
C          3.70570        16.46904         0.11229
C          4.96586        14.29804         0.14305
C          5.01166        17.16570         0.05576
C          3.80348        19.32359         0.46602
C          5.05002        18.61132         0.21992
C          6.33856         1.93487        -0.18989
C          6.03402         3.35581        -0.71831
C          7.28927         1.18860        -1.15627
C          7.31914         4.10560        -1.05359
C          5.94648         6.38124        -0.89243
C          6.16689         7.76932        -0.23961
C          7.28207         5.60132        -1.09924
C          7.41465         8.46037        -0.76670
C          5.76346        10.86089        -0.64872
C          6.10861        12.12343        -0.22279
C          7.49424         9.75026        -1.18388
C          7.32730        12.82497        -0.64681
C          6.12314        14.96352        -0.22513
C          6.14915        16.42745        -0.14583
C          7.33790        14.23091        -0.55921
C          7.49996        17.05202         0.06682
C          6.25926        19.27413         0.19936
C          7.51265        18.56658         0.08614
C          8.62783         1.92524        -1.18227
C          8.64120         3.39344        -1.02774
C          9.79060         1.22428        -1.13473
C          9.81780         4.08823        -0.96703
C          8.67588         6.30572        -1.12814
C          8.71468         7.73365        -0.54906
C          9.85387         5.52379        -0.44143
C          9.90304         8.47166        -1.15841
C          8.63893        10.64675        -0.91384
C          8.56499        12.13744        -0.95923
C          9.94354         9.93559        -0.90382
C          9.80513        12.83672        -1.02347
C          8.54404        14.97125        -1.00824
C          8.55417        16.47431        -0.87087
C          9.83367        14.24641        -1.11197
C          9.80718        17.32325        -1.10750
C          8.72179        19.19645         0.10360
C          9.99833        18.39403        -0.01074
C         11.03808         1.92586        -0.65020
C         11.11216         3.34493        -1.23048
C         12.37566         1.25803        -0.80780
C         12.31997         4.10120        -0.74181
C         11.21498         6.31203        -0.65208
C         11.19012         7.73081        -1.21752
C         12.41614         5.43957        -0.93250
C         12.44556         8.51424        -1.03641
C         11.16285        10.66980        -1.39519
C         11.13278        12.08649        -0.78968
C         12.43338         9.87014        -1.12650
C         12.36628        12.86021        -1.19309
C         11.07863        14.98558        -1.09376
C         11.07919        16.47827        -1.27105
C         12.29740        14.32333        -0.98082
C         12.35888        17.24608        -1.17082
C         11.22878        19.24284        -0.26764
C         12.37114        18.67857        -0.73369
C         13.53837         1.94715        -0.42380
C         13.37246         3.37874         0.06110
C         14.78785         1.33660        -0.37253
C         14.62562         4.22266         0.15286
C         13.31881         6.35442        -0.12824
C         13.69278         7.62527        -0.98650
C         14.46056         5.66155         0.68696
C         15.04959         8.40457        -0.62020
C         13.76495        10.57516        -1.28173
C         13.67543        12.11953        -1.20404
C         14.75344         9.91544        -0.33371
C         15.00505        12.84164        -0.98414
C         13.55870        15.02320        -0.70347
C         13.58828        16.51251        -0.76313
C         14.86618        14.32188        -0.61015
C         14.94490        17.18738        -1.00419
C         13.67427        19.34988        -0.70901
C         14.85787        18.68750        -0.76451
C         16.01838         1.99108         0.18386
C         15.90048         3.50227         0.35363
C         17.23162         1.75994        -0.76530
C         17.03530         4.16419         1.10208
C         15.81515         6.37946         0.69753
C         15.90112         7.77616         0.48374
C         16.98084         5.68631         1.09106
C         17.03429         8.48831         0.92900
C         15.90593        10.69405         0.22775
C         15.96212        12.12235        -0.04406
C         17.22257         9.94694         0.52157
C         17.27268        12.81384         0.15750
C         15.97284        15.02529        -0.25031
C         15.98489        16.54380        -0.04976
C         17.16516        14.34055         0.36471
C         17.35008        17.18262        -0.23111
C         16.19673        19.36232        -0.98514
C         17.41850        18.57807        -0.51545
C         18.43756         2.55183        -0.29266
C         18.34147         3.64477         0.53154
C         19.71955         2.15781        -0.83903
C         19.54578         4.26676         1.09079
C         18.14847         6.38906         1.48049
C         18.13322         7.80849         1.50796
C         19.41425         5.62366         1.73320
C         19.28751         8.56157         2.08694
C         18.01384        10.74512         1.57461
C         18.22840        12.21635         1.19352
C         19.31342        10.07729         2.02478
C         19.53727        12.96297         1.28284
C         18.49185        14.95592        -0.07116
C         18.51930        16.45706        -0.01146
C         19.67725        14.27795         0.57929
C         19.80440        17.05833        -0.11344
C         18.66557        19.18975        -0.56667
C         19.87216        18.45997        -0.36721
C         20.87566         2.78932        -0.50857
C         20.89995         3.79044         0.56409
C         22.04034         4.71497         0.69643
C         20.70243         6.37263         2.00618
C         20.60765         7.84911         2.31353
C         21.95551         5.86164         1.39727
C         21.85079         8.65658         2.31862
C         20.63757        10.81690         2.11170
C         20.82162        12.32408         1.81769
C         21.86708         9.99628         2.21002
C         22.01194        12.72387         0.97705
C         20.91200        14.84600         0.37878
C         21.00378        16.26634        -0.00550
C         22.08566        13.97522         0.47632
C         22.22960        16.91471        -0.14958
C         21.15145        19.07005        -0.49356
C         22.29700        18.30422        -0.39076
O          5.10288         3.79780         1.62877
O         12.01105         6.65474         0.63959
O         11.82748        16.89973        -2.47452
O          7.14415         4.80529        -2.34400
O         18.53215        13.00686         2.36239
O         19.76433        10.65002         3.28653
O         13.37999        15.89883         0.53561
O          8.11250        15.90384        -2.11874
O         15.91832         8.33684        -1.70663
O         19.68791         8.09912         3.41209
O         15.33687        17.03238        -2.33508
O          6.40445        10.35963        -1.78763
O         13.03248        12.56441        -2.46066
O         20.03070         5.60137         3.05550
O          9.34494        10.25277         0.39290
O         15.57746         4.12188        -0.94004
O         10.48089         8.10032        -2.44201
O          2.79589        16.78972        -0.98739
O         14.68258        10.30818         1.02368
O         20.36474         3.32586         1.84858
O         15.65078        12.84248        -2.29834
H         14.94639        13.04488        -2.95777
O         16.91447        14.57337         1.76354
H         16.65562        15.52178         1.88880
O          6.40954         7.51947         1.17615
H          7.37967         7.36890         1.32762
O         12.93122         3.33120         1.45046
H         12.05306         2.86928         1.48802
O          4.40004        10.66630         2.14964
H          4.41152         9.73091         2.46736
O         16.95591         3.71167         2.48591
H         17.72901         4.07344         2.97288
O         21.08200        12.93182         3.10800
H         20.29458        12.73264         3.66413
O          9.01480         7.67365         0.87212
H          9.13061         8.60991         1.17193
O         17.53677         0.37011        -0.78062
H         17.51505         0.07470         0.15755
O          9.00306         6.36631        -2.51709
H          8.61816         5.56972        -2.95235
O          5.25808         3.18946        -1.93652
H          5.50173         3.93371        -2.53696
O         17.93868         9.87829        -0.72126
H         17.36223         9.31615        -1.32700
O          9.57484        18.06730        -2.31014
H          9.41638        17.42457        -3.03473
O         11.23636         3.18473        -2.66772
H         11.49102         4.04876        -3.05505
O          7.06687         2.04291         1.05344
H          6.50192         2.56463         1.67788
O         11.00689        10.79459        -2.82473
H         10.96713         9.87785        -3.19072
O          3.52802        11.97554        -1.11787
H          3.04140        12.77338        -1.45037
O          5.32294        12.91497         1.98425
H          6.25337        13.20707         2.08278
O          3.88349        15.17900         2.07420
H          4.25209        14.32195         2.41290
O         17.14213        10.75027         2.72099
H         17.62962        11.20359         3.44497
O         18.61190        14.71586        -1.51489
H         19.38667        15.22507        -1.83561
O         16.30551        19.46968        -2.41383
H         16.04342        18.56183        -2.75492
O         15.64027        16.86396         1.32778
H         14.73203        16.50338         1.49406
O         10.25348        17.67925         1.22664
H         10.39549        18.33496         1.93988
O          9.64614         5.34770         0.96687
H         10.41219         5.74234         1.44283
O          2.08224         4.11436        -0.44180
H          1.93638         3.18856        -0.73014
O         14.24633        10.28878        -2.60777
H         13.63252        10.72679        -3.23806
O         10.75990         2.04648         0.79275
H         10.47222         1.16938         1.12282
O          5.36384         6.64155        -2.19028
H          5.75296         6.00852        -2.83556
O          6.72418         1.01765        -2.45162
H          6.12746         1.78297        -2.63460
O         13.85626         7.14255        -2.32160
H         14.73998         7.51912        -2.61627
O          3.27506         8.26399         2.50095
H          2.63453         8.59231         3.16764
O         17.91630        12.45608        -1.09333
H         17.37991        12.80305        -1.85021
O          2.90681         7.77015        -1.11095
H          3.52192         7.41069        -1.79315
O          2.13237        14.26212        -1.05903
H          2.17537        15.19842        -1.39120
O          7.88849        16.58783         1.40058
H          7.30696        17.03166         2.05291
O         16.32405         1.32118         1.43048
H         16.62570         2.00613         2.08230
O          3.21223         5.54706         2.70563
H          3.49907         6.46452         2.93113
O         11.29176        11.99548         0.64432
H         10.53019        11.48316         1.00958
O         14.08116         5.63294         2.06930
H         13.42964         4.89864         2.18682
H          0.96388         1.32956         2.21568
H          0.90046         3.79522         2.31426
H          2.73497         0.11820         0.97298
H          0.54680         5.66651         1.19479
H          0.40374         8.11166         1.09139
H          0.40988        10.15703         1.43120
H          0.39988        12.60205         1.35708
H          0.42359        14.64123         1.45588
H          0.51306        17.07472         1.45183
H          1.70620        19.28925         0.84465
H          5.01397         0.11697         0.00499
H          3.86931        20.41305         0.60738
H          7.47828         0.16375        -0.73731
H          6.28520        20.37089         0.28764
H          9.77028         0.12232        -1.14867
H          8.77335        20.29497         0.16831
H         12.44710         0.22019        -1.17035
H         11.23697        20.28010         0.10453
H         14.88084         0.27580        -0.65628
H         13.67133        20.44508        -0.58266
H         16.96237         2.06942        -1.80792
H         16.20261        20.39762        -0.55410
H         19.71918         1.36519        -1.60057
H         18.73284        20.25945        -0.81644
H         21.81097         2.56405        -1.04238
H         22.98539         4.44502         0.20100
H         22.84545         6.50542         1.44135
H         22.80938         8.13164         2.43939
H         22.83276        10.52076         2.24626
H         22.89884        12.07458         0.94730
H         23.01642        14.30852        -0.00689
H         23.16791        16.34943        -0.06356
H         21.21856        20.14958        -0.69062
H         23.28315        18.77824        -0.49582
