         244
 CSIRO Nanostructure Databank - Neutral Graphene Oxide Data Set
C          1.54978         2.50363        -2.01993
C          1.37589         3.75099        -1.29068
C          2.75248         1.89721        -2.12910
C          2.37236         4.23878        -0.50340
C          1.18579         5.94543         0.91598
C          1.24060         7.16893         1.64024
C          2.29934         5.50077         0.24183
C          2.36457         7.97665         1.61561
C          1.31449        11.12614         2.08853
C          1.29122        12.40525         1.54676
C          2.44426        10.31774         1.90785
C          2.45187        12.94185         0.96448
C          1.24690        14.98754         0.13150
C          1.25248        16.26319        -0.45059
C          2.45135        14.31444         0.46023
C          2.43748        16.99000        -0.58384
C          2.49962        18.28200        -1.18358
C          3.97566         2.53849        -1.51839
C          3.57612         3.33691        -0.26720
C          5.11343         1.59524        -1.19793
C          4.80579         4.07749         0.26809
C          3.51144         6.33365         0.24234
C          3.55638         7.64574         0.89163
C          4.87893         5.57126         0.17551
C          4.76543         8.39127         0.91073
C          3.60491        10.77545         1.25400
C          3.64288        12.16261         0.91093
C          4.73958         9.89898         0.83586
C          4.90989        12.82324         0.62479
C          3.68164        14.96614         0.26425
C          3.67188        16.45761         0.09132
C          4.91969        14.27949         0.41470
C          4.95174        17.02794        -0.43640
C          3.69398        18.94365        -1.35038
C          4.95693        18.32689        -1.00273
C          6.18050         1.99977        -0.38898
C          6.08449         3.31225         0.32719
C          7.39397         1.29808        -0.30676
C          7.34372         4.06726         0.50616
C          6.04530         6.28842         0.64499
C          6.02414         7.69727         0.77036
C          7.25665         5.50221         0.91880
C          7.30798         8.40564         0.84721
C          6.03739        10.62410         0.52599
C          6.08811        12.10266         0.62225
C          7.33862         9.86845         0.57155
C          7.38701        12.80044         0.25231
C          6.12903        14.98035         0.29505
C          6.16729        16.35597        -0.15408
C          7.39448        14.27374         0.70857
C          7.38861        17.03623        -0.37519
C          6.18470        18.97213        -1.24362
C          7.40188        18.35228        -0.89352
C          8.59786         1.89217         0.37552
C          8.52441         3.40883         0.39236
C          9.84887         1.35762        -0.26323
C          9.76128         4.20796         0.23671
C          8.53602         6.26565         1.13222
C          8.51784         7.72989         0.94596
C          9.83026         5.52497         0.93864
C          9.80430         8.42203         0.99297
C          8.63187        10.62673         0.81731
C          8.64806        12.11813         0.76322
C          9.80942         9.81964         1.21113
C          9.80274        12.86786         0.63854
C          8.64791        14.94878         0.20162
C          8.67108        16.44326         0.14656
C          9.78554        14.22521         0.10338
C          9.91359        16.98751        -0.51255
C          8.66691        19.03757        -1.06662
C          9.87754        18.40129        -0.89184
C         11.01115         2.10597        -0.51365
C         10.99737         3.58374        -0.30067
C         12.21375         1.51627        -0.90494
C         12.29155         4.30192        -0.14551
C         11.10389         6.28033         0.86510
C         11.05764         7.75231         0.96729
C         12.31386         5.64019         0.30753
C         12.28732         8.45961         0.97201
C         11.03329        10.38864         1.60844
C         11.09435        12.50527         1.16709
C         12.28170         9.84040         1.30519
C         12.32745        12.94085         0.73879
C         11.04289        14.73469        -0.56809
C         11.04517        16.24607        -0.65573
C         12.35998        14.15902        -0.04096
C         12.29490        16.85381        -1.24371
C         11.13825        19.06622        -1.10042
C         12.31862        18.36192        -1.13277
C         13.42742         2.33624        -1.25490
C         13.47732         3.66313        -0.52898
C         14.72092         1.57752        -1.13361
C         14.71481         4.32836        -0.35176
C         13.52078         6.36780         0.34874
C         13.53766         7.76479         0.71102
C         14.73858         5.69240         0.05747
C         14.74861         8.45944         0.74873
C         13.53150        10.67190         1.39056
C         13.57919        12.26121         1.32373
C         14.78991         9.90592         1.08760
C         14.83903        12.78855         0.61438
C         13.54811        14.82993        -0.27366
C         13.57319        16.18431        -0.77518
C         14.82961        14.28794         0.34457
C         14.75897        16.89596        -0.89300
C         13.58623        19.02027        -1.22728
C         14.76278        18.30756        -1.17407
C         15.91529         2.20610        -0.88603
C         15.95208         3.63840        -0.58123
C         17.16335         1.47354        -0.84767
C         17.15942         4.30278        -0.38802
C         15.97829         6.38260         0.19153
C         15.98459         7.77792         0.50234
C         17.19549         5.67461         0.00306
C         17.22515         8.47699         0.56397
C         16.03108        10.62897         0.73184
C         15.99688        12.06200         0.48462
C         17.21121         9.91747         0.65156
C         17.16183        12.62229        -0.35119
C         16.07423        14.81090        -0.32959
C         16.07396        16.16789        -0.97010
C         17.25602        14.13081        -0.27208
C         17.29347        16.98606        -0.61473
C         16.06532        19.04213        -1.35674
C         17.27863        18.33135        -0.80604
C         18.37744         2.10515        -0.69686
C         18.46134         3.61925        -0.72633
C         19.61730         1.39374        -0.64697
C         19.58696         4.12698         0.17238
C         18.44662         6.35991         0.19831
C         18.45031         7.76718         0.42987
C         19.66840         5.63693         0.16346
C         19.71657         8.46305         0.48215
C         18.49183        10.69942         0.75542
C         18.53784        11.88043        -0.22933
C         19.74503         9.87415         0.57505
C         19.74549        12.73398         0.13213
C         18.51910        14.85655        -0.28024
C         18.52004        16.25779        -0.31275
C         19.74075        14.14845         0.03065
C         19.73483        17.00515        -0.11189
C         18.50539        19.18586        -0.62597
C         19.73988        18.42192        -0.23265
C         20.82585         2.04560        -0.44348
C         20.88571         3.42723        -0.14249
C         22.09072         4.13453        -0.00547
C         20.91218         6.28857         0.26734
C         20.94082         7.73876         0.37016
C         22.10862         5.50937         0.21782
C         22.15271         8.46640         0.34691
C         20.95573        10.57848         0.49940
C         20.92884        12.05032         0.47431
C         22.16219         9.85138         0.39254
C         22.09838        12.78901         0.75872
C         20.93894        14.87906         0.29748
C         20.94702        16.32572         0.19777
C         22.10191        14.16840         0.67110
C         22.12583        17.08398         0.39156
C         20.92076        19.13533        -0.03868
C         22.11237        18.46597         0.27896
O         10.68123         5.56734         2.12089
O          4.26883         6.17731        -0.98785
O          5.14487        10.20477        -0.56148
O          8.20792        10.18167        -0.56862
O          7.78787         5.75552         2.27994
O         10.08425         4.31479        -1.21236
O          5.23475         3.48234         1.53607
O         14.38286        10.20829         2.49911
O         11.03346        11.62291         2.25054
O          2.36369         9.05531         2.50136
O         13.27518         2.67409        -2.69060
H         12.43402         3.17248        -2.78169
O         12.24245        16.56906        -2.69974
H         11.53791        17.13743        -3.07948
O         13.67055        12.70213         2.70445
H         14.18111        12.00603         3.18391
O          7.42770        12.80133        -1.19398
H          7.59104        11.86903        -1.47407
O          8.62559         1.48461         1.79329
H          7.86577         1.91067         2.24477
O         19.22455         3.74109         1.53539
H         19.94539         4.03387         2.13126
O          3.58548        16.99466         1.49033
H          3.56333        17.97325         1.41141
O         18.80401         3.99796        -2.08800
H         18.08856         3.68142        -2.67824
O         16.27800        19.21718        -2.77540
H         17.14674        19.67999        -2.85637
O         14.89839        14.92468         1.67218
H         14.38898        14.34749         2.29729
O         18.51721        11.28354         2.08709
H         18.41199        10.56099         2.74028
O          3.13452         2.38371         0.71991
H          3.78433         2.41136         1.46389
O          7.43484        14.33049         2.17120
H          6.53322        14.14040         2.50828
O         10.94335        14.26058        -1.95042
H         11.54797        14.82915        -2.49082
O         18.85082        11.28450        -1.51691
H         19.11391        12.00626        -2.12630
O         18.77962        19.91819        -1.85384
H         19.37292        19.36405        -2.40265
O          4.51418         3.49763        -2.47966
H          4.64304         3.03618        -3.33421
O         16.23223        15.90428        -2.41525
H         16.14990        16.77246        -2.87058
O          8.74875        16.86279         1.55791
H          8.24809        16.19656         2.08590
O         16.68516        12.40384        -1.71308
H         17.02072        11.52479        -2.00404
H          0.66880         2.07508        -2.52100
H          0.43917         4.31206        -1.42401
H          2.86904         0.97978        -2.72675
H          0.26827         5.34220         0.93698
H          0.38966         7.46639         2.26624
H          0.43989        10.71681         2.60959
H          0.38107        13.01271         1.63393
H          0.28661        14.46389         0.23424
H          0.30989        16.68847        -0.82671
H          1.56471        18.74499        -1.53431
H          5.21686         0.66572        -1.78111
H          3.70983        19.94101        -1.81311
H          7.50211         0.34930        -0.85400
H          6.19176        19.98375        -1.67584
H          9.89545         0.26809        -0.41733
H          8.64861        20.08544        -1.40257
H         12.24901         0.42915        -1.07587
H         11.15168        20.16407        -1.18342
H         14.70940         0.49658        -1.34296
H         13.60891        20.11635        -1.32475
H         17.12365         0.37482        -0.91560
H         15.98523        20.06468        -0.88055
H         19.60701         0.30421        -0.80266
H         18.27978        19.96949         0.15229
H         21.76561         1.47583        -0.50902
H         23.04438         3.59748        -0.12242
H         23.08342         6.00702         0.30722
H         23.11094         7.93771         0.25570
H         23.12242        10.38064         0.32228
H         23.01660        12.26843         1.06297
H         23.02930        14.70726         0.90447
H         23.07426        16.58483         0.62962
H         20.91512        20.22958        -0.14298
H         23.03718        19.03905         0.43205
