         234
 CSIRO Nanostructure Databank - Neutral Graphene Oxide Data Set
C          1.12216         2.20818         0.77293
C          1.12166         3.59890         0.82563
C          2.32134         1.51242         0.60277
C          2.33060         4.32387         0.77528
C          1.15658         6.47270         0.29971
C          1.16594         7.79885        -0.10023
C          2.35260         5.77484         0.57561
C          2.38352         8.46698        -0.35356
C          1.18237        10.64708        -0.84481
C          1.11493        11.98563        -0.64387
C          2.41725         9.89044        -0.66762
C          2.33909        12.70859        -0.21430
C          1.15540        14.98632         0.18596
C          1.20588        16.33420         0.07270
C          2.37770        14.15542         0.22071
C          2.46167        17.05983        -0.03906
C          2.48019        18.48629        -0.15275
C          3.53979         2.20240         0.57348
C          3.55066         3.60373         0.71434
C          4.80240         1.41100         0.32758
C          4.82732         4.31512         0.95056
C          3.58494         6.47260         0.44031
C          3.59430         7.75897        -0.13468
C          4.84794         5.84449         0.91755
C          4.87718         8.41778        -0.45753
C          3.62794        10.57811        -0.62136
C          3.59725        12.08365        -0.78401
C          4.87598         9.89558        -0.45117
C          4.87475        12.76832        -0.37495
C          3.71490        14.89932         0.34183
C          3.66786        16.36063        -0.03381
C          4.91015        14.17350        -0.24558
C          4.90562        17.04893        -0.19447
C          3.66684        19.17814        -0.21597
C          4.92171        18.49143        -0.24903
C          6.08085         2.18836         0.53749
C          6.07766         3.54886         0.80327
C          7.29489         1.47527         0.37151
C          7.34395         4.24113         1.09521
C          6.17063         6.56446         0.72503
C          6.16775         7.68458        -0.30678
C          7.40181         5.69873         0.82302
C          7.26260         8.42489         0.44807
C          6.06832        10.59688        -0.25452
C          6.06046        12.02241        -0.36186
C          7.28391         9.96169         0.43379
C          7.32077        12.73055        -0.60302
C          6.12933        14.89779        -0.35892
C          6.11003        16.32204        -0.35318
C          7.36700        14.19083        -0.55869
C          7.33201        17.06436        -0.70196
C          6.14537        19.18897        -0.26812
C          7.38123        18.51639        -0.41578
C          8.58208         2.01924         0.56535
C          8.64631         3.42454         1.10068
C          9.67294         1.24598         0.08886
C          9.89141         4.23535         1.00579
C          8.61340         6.35031         0.73550
C          8.62322         7.78075         0.47333
C          9.87161         5.64170         0.87078
C          9.79839         8.48875         0.44752
C          8.61157        10.56345        -0.03381
C          8.62677        11.95369        -0.51052
C          9.82052         9.91590         0.13402
C          9.86808        12.73547        -0.43976
C          8.60234        14.83381        -0.70870
C          8.63085        16.30446        -0.89642
C          9.83585        14.11860        -0.66810
C          9.90084        17.03730        -0.67956
C          8.61997        19.16230        -0.38324
C          9.86334        18.46673        -0.48086
C         11.04962         1.52758         0.36439
C         11.14248         3.61666         1.09595
C         12.20062         1.28508        -0.34112
C         12.33344         4.26576         0.75733
C         11.09239         6.36096         0.92346
C         11.05992         7.83861         0.87351
C         12.31541         5.66981         0.82179
C         12.35138         8.59390         0.77873
C         11.08257        10.62471        -0.04218
C         11.08170        11.99596        -0.25688
C         12.38039         9.82796        -0.10348
C         12.34142        12.77558        -0.22823
C         11.06517        14.87957        -1.13576
C         11.10189        16.34211        -0.69927
C         12.38220        14.14037        -0.86324
C         12.34725        17.04884        -0.55146
C         11.08408        19.15842        -0.35904
C         12.32148        18.48409        -0.38500
C         13.46788         2.09089        -0.18038
C         13.53344         3.52660         0.27835
C         14.77490         1.30574        -0.09738
C         14.85130         4.22044         0.45421
C         13.61819         6.34465         0.94817
C         13.65273         7.85026         0.92021
C         14.85520         5.58088         0.68935
C         14.92054         8.51879         0.56394
C         13.66529        10.59877         0.10192
C         13.63488        12.06115        -0.00763
C         14.89699         9.92505         0.27601
C         14.89687        12.76866        -0.36383
C         13.64752        14.92152        -0.65856
C         13.59214        16.38519        -0.54189
C         14.88826        14.23583        -0.26779
C         14.81110        17.08570        -0.28474
C         13.54897        19.19160        -0.26195
C         14.78214        18.53689        -0.20293
C         16.01059         2.14000        -0.38508
C         16.06164         3.54338         0.01406
C         17.11398         1.50325        -0.87932
C         17.26264         4.24798        -0.06004
C         16.10918         6.33995         0.85346
C         16.12740         7.81264         0.67473
C         17.40522         5.59429         0.50726
C         17.37752         8.49201         0.56006
C         16.16238        10.60767         0.25100
C         16.18853        12.03126        -0.14352
C         17.37707         9.91856         0.42837
C         17.37492        12.84969         0.12508
C         16.06978        14.94826        -0.10949
C         16.02183        16.38954        -0.08815
C         17.32384        14.22209         0.06726
C         17.24002        17.15648         0.22929
C         16.00634        19.26871        -0.06257
C         17.22996        18.63126         0.09710
C         18.32356         2.23444        -1.26932
C         18.39791         3.71694        -0.82225
C         19.60748         1.56089        -1.49816
C         19.72832         4.32102        -0.69009
C         18.62160         6.39598         0.25107
C         18.62161         7.76312         0.44261
C         19.85972         5.64818        -0.07927
C         19.95002         8.48977         0.57112
C         18.64013        10.64796         0.43161
C         18.60090        12.12527         0.52681
C         19.86664        10.00545         0.44060
C         19.90248        12.87044         0.57669
C         18.59573        14.98763         0.00587
C         18.55877        16.45409         0.28028
C         19.91078        14.31077         0.17133
C         19.83499        17.22370        -0.02738
C         18.46302        19.32105         0.28538
C         19.70071        18.67802         0.37672
C         20.76029         2.27586        -1.58782
C         20.83665         3.67956        -1.23344
C         22.04851         4.42892        -1.48234
C         21.14537         6.42860        -0.36223
C         21.04349         7.94738        -0.38515
C         22.14415         5.75731        -1.20457
C         22.34450         8.63851        -0.04581
C         21.12875        10.72110         0.43927
C         21.17576        12.12846         0.49029
C         22.35179         9.93708         0.32434
C         22.35190        12.93082         0.52502
C         21.14115        15.09433         0.47102
C         21.08289        16.51276         0.49963
C         22.32389        14.32292         0.60959
C         22.17649        17.31254         0.87351
C         20.87460        19.38093         0.72844
C         22.07890        18.71113         0.94452
O         19.15148        12.63171         1.81319
O          7.94364         3.72432         2.34246
O         11.61180         8.63117         2.01362
O         15.62240        12.22887        -1.50861
O         19.38591        14.59336        -1.18933
O         13.72937         7.13405         2.18928
O          4.74628         5.14034         2.17894
O         13.25833        14.29356        -2.01526
O          5.66593         7.77410        -1.63379
O         16.95932         5.77824         1.89530
O          6.56302         7.78367         1.68618
O          7.95078        12.14433        -1.81209
O         20.93208         5.78892         0.91932
O          7.85232        16.74823        -2.05127
O         18.05881         3.33404        -2.19623
O         13.44578         3.16206        -1.18096
O          2.33982        13.04819         1.20615
O         12.95035        12.76675         1.11701
O         11.22157         2.29993         1.53166
O         17.89298        16.74702         1.52989
O          7.16692        10.40141         1.81727
H          6.82127         9.64293         2.34194
O          4.81879         0.22315         1.13250
H          4.91570         0.49186         2.06922
O         19.97098        17.23793        -1.47865
H         19.97219        16.29356        -1.77461
O         20.68546         8.28481        -1.74759
H         20.72494         9.25975        -1.84301
O         12.43619         9.26810        -1.46475
H         12.56679        10.00635        -2.09762
O          4.03032        14.92562         1.77434
H          3.70131        14.07232         2.14377
O          3.50143        12.34787        -2.22428
H          4.28407        11.94547        -2.65797
O         14.87842         0.74302         1.22412
H         14.99315         1.47219         1.86796
O         10.88911        14.93063        -2.57774
H         11.79320        14.93918        -2.97384
O         20.42881         8.23464         1.91477
H         19.70290         8.42738         2.54351
H          0.17200         1.65926         0.82769
H          0.16126         4.12357         0.91328
H          2.32443         0.41707         0.51821
H          0.18804         5.96935         0.41525
H          0.20907         8.31730        -0.24380
H          0.26517        10.10141        -1.10884
H          0.15114        12.51125        -0.70412
H          0.18540        14.47466         0.26430
H          0.27275        16.91653         0.05505
H          1.52397        19.02942        -0.15127
H          4.78010         1.05700        -0.74222
H          3.66335        20.27684        -0.26166
H          7.21939         0.42416         0.05562
H          6.13930        20.28589        -0.17900
H          9.42957         0.37526        -0.54045
H          8.64733        20.25172        -0.22869
H         12.16412         0.66125        -1.24769
H         11.07241        20.25085        -0.22904
H         14.73968         0.44189        -0.80713
H         13.51955        20.28876        -0.18317
H         17.09405         0.41196        -1.02467
H         15.96474        20.36817        -0.08394
H         19.61488         0.46741        -1.61806
H         18.42943        20.41507         0.40994
H         21.70163         1.76392        -1.83776
H         22.84700         3.93113        -2.05263
H         22.98612         6.34693        -1.59624
H         23.29053         8.08656        -0.14793
H         23.31173        10.43727         0.51780
H         23.33431        12.43849         0.55245
H         23.28368        14.84463         0.73503
H         23.11905        16.83644         1.17984
H         20.81694        20.46551         0.90312
H         22.96372        19.28716         1.25031
