         320
 CSIRO Nanostructure Databank - Neutral Graphene Oxide Data Set
C         30.52540        56.94894        -1.33434
C         30.53994        58.35531        -1.55351
C         29.34557        59.06261        -1.86535
C         30.56585        61.15523        -1.92898
C         29.37335        60.44408        -2.05150
C         32.74875        52.71529         0.08782
C         32.65420        54.17793         0.10607
C         31.57262        54.88335        -0.56321
C         32.91485        56.96604        -0.65028
C         31.65501        56.25167        -0.83507
C         33.05268        58.31472        -1.31613
C         31.75822        59.07315        -1.43714
C         33.00225        61.19750        -1.47151
C         31.78143        60.48143        -1.62084
C         34.92263        48.30630         0.29106
C         34.77648        49.68157        -0.06294
C         33.86071        50.59146         0.43475
C         35.21334        52.79538         0.30258
C         33.93937        52.03750         0.21959
C         35.19497        54.16820         0.45691
C         33.94258        54.95578         0.38190
C         35.28953        57.07163         0.03623
C         34.02133        56.35570        -0.11190
C         35.31208        58.52123        -0.21153
C         34.18513        59.14600        -0.77684
C         35.35496        61.30845        -0.74313
C         34.18474        60.56099        -1.00506
C         37.84769        44.26620         0.26239
C         37.75095        45.68666         0.09667
C         36.45229        46.27159         0.35229
C         37.94331        48.68961        -0.34293
C         36.04000        47.53036        -0.09455
C         37.92816        50.11386        -0.14986
C         36.70075        50.89181        -0.32563
C         37.73173        52.79346         0.89525
C         36.51436        52.11709         0.26021
C         37.73082        54.29052         0.75456
C         36.39652        54.96713         0.91719
C         37.63566        57.15017         0.83739
C         36.41326        56.40393         0.45808
C         37.60321        58.65045         0.75439
C         36.44970        59.29666         0.11866
C         37.70241        61.45212        -0.02334
C         36.51976        60.69793        -0.21018
C         40.28521        39.96179         0.32364
C         40.25606        41.35478         0.25763
C         39.07298        42.12227         0.39008
C         40.27583        44.22906        -0.22115
C         39.02825        43.51808         0.15519
C         40.23768        45.73694        -0.28155
C         38.95291        46.44608        -0.08275
C         40.26945        48.54443         0.38515
C         39.03145        47.87709         0.01851
C         40.23491        49.98808         0.84172
C         39.04058        50.74194         0.34864
C         40.26055        52.89017         0.85645
C         39.02592        52.23815         0.28897
C         40.20028        54.32440         1.01624
C         38.92681        55.00427         0.88860
C         40.14029        57.16301         0.92172
C         38.93896        56.44772         0.88771
C         40.18413        58.63686         0.56012
C         38.90296        59.39880         0.83727
C         40.27129        61.45603         0.23878
C         38.94180        60.86070         0.47153
C         42.75041        35.68296        -0.23167
C         42.73411        37.08446        -0.08292
C         41.51450        37.81609         0.05829
C         42.76362        39.91664         0.13343
C         41.50145        39.21234         0.14246
C         42.78590        41.32903         0.23499
C         41.52855        42.05162        -0.17226
C         42.70154        44.18877         0.38166
C         41.55169        43.53141         0.08730
C         42.76424        45.66319         0.27346
C         41.53706        46.47094        -0.06330
C         42.71087        48.60016         0.68683
C         41.48856        47.89620         0.36253
C         42.75006        49.99217         0.79041
C         41.49925        50.75502         0.40921
C         42.68342        52.84563         1.29099
C         41.43364        52.17610         0.92647
C         42.66333        54.36512         1.31631
C         41.38527        55.07140         1.13358
C         42.64517        57.22741         0.94210
C         41.38793        56.48837         1.03774
C         42.66348        58.60362         0.84141
C         41.40747        59.38898         1.13941
C         42.70769        61.48578         0.52165
C         41.44805        60.81608         0.58679
C         45.19775        32.88071        -0.70748
C         43.98901        33.55922        -0.54764
C         45.21065        35.67995        -0.37974
C         43.96711        34.97065        -0.38322
C         45.21773        37.09143        -0.20911
C         43.98442        37.79050        -0.06208
C         45.22641        39.91786         0.15816
C         43.99205        39.20460         0.09738
C         45.22649        41.31853         0.42935
C         43.97382        42.01214         0.49358
C         45.19539        44.18023         1.03727
C         43.86065        43.43340         1.01843
C         45.21455        45.61128         0.80842
C         43.94680        46.34787         0.87967
C         45.22334        48.57662         0.99371
C         43.94354        47.84403         0.98350
C         45.20269        49.95707         1.14460
C         43.96382        50.67946         1.08602
C         45.12434        52.84695         0.91770
C         43.96679        52.12565         1.08258
C         45.08018        54.29200         0.60173
C         43.89017        55.08569         0.93349
C         45.15796        57.16783         0.69433
C         43.89325        56.46083         0.82354
C         45.13959        58.63986         1.05412
C         43.93042        59.31032         0.41114
C         45.17367        61.47369         0.68612
C         43.94120        60.81102         0.61225
C         46.41286        33.56519        -0.71274
C         47.66508        35.69800        -0.55901
C         46.44790        34.97717        -0.55015
C         47.69302        37.10340        -0.39382
C         46.45299        37.80754        -0.20704
C         47.69203        39.93475        -0.02323
C         46.46181        39.21839        -0.01559
C         47.69524        41.34534         0.19536
C         46.47466        42.00834         0.48944
C         47.74440        44.20003         0.54797
C         46.51636        43.43143         0.83818
C         47.74321        45.60352         0.57314
C         46.45013        46.31361         0.54946
C         47.78011        48.49535         0.82986
C         46.46534        47.86211         0.65844
C         47.79284        49.95428         1.05956
C         46.48229        50.69606         1.24888
C         47.61109        52.85350         0.36794
C         46.44109        52.18204         1.03116
C         47.70017        54.36106         0.54956
C         46.35619        55.03417         0.29806
C         47.61160        57.22044         0.31146
C         46.32933        56.49595         0.47957
C         47.67473        58.61303         0.84204
C         46.42276        59.37548         0.78642
C         47.69955        61.46174         0.62279
C         46.43893        60.77335         0.71620
C         48.90803        37.83349        -0.41181
C         50.14343        39.97394        -0.26801
C         48.93107        39.23536        -0.23838
C         50.16260        41.37232        -0.09052
C         48.93404        42.07142         0.15311
C         50.17818        44.22350         0.23403
C         48.95232        43.49234         0.30027
C         50.17905        45.62233         0.39557
C         48.96161        46.33725         0.49702
C         50.21960        48.50879         0.40585
C         48.95978        47.79346         0.60020
C         50.21688        49.91161         0.19192
C         49.00729        50.68946         0.54668
C         50.10374        52.86489        -0.29260
C         48.85504        52.09587         0.04719
C         50.12832        54.29547        -0.12368
C         48.80404        54.99726        -0.33032
C         50.17852        57.18910         0.09921
C         48.86457        56.51069        -0.09059
C         50.20336        58.58290         0.32417
C         48.98583        59.32924         0.74139
C         50.17049        61.46148         0.37704
C         48.94098        60.80150         0.58479
C         51.38039        42.11553        -0.16764
C         52.63164        44.24119        -0.15573
C         51.41666        43.50412        -0.01035
C         52.69029        45.62692         0.03464
C         51.48974        46.33412         0.62770
C         52.65283        48.49967         0.10563
C         51.44488        47.80584         0.29428
C         52.66000        49.92536         0.02120
C         51.41838        50.61293        -0.01909
C         52.66887        52.79587        -0.07351
C         51.43161        52.06086        -0.30044
C         52.59471        54.29099         0.21108
C         51.40834        55.00600        -0.49130
C         52.59776        57.17877        -0.12250
C         51.38370        56.48472        -0.13344
C         52.62787        58.59483         0.00317
C         51.41392        59.30336         0.21392
C         52.61791        61.44760         0.09185
C         51.40539        60.75931         0.25275
C         53.87369        46.36113        -0.15541
C         55.09590        48.51076        -0.19811
C         53.91070        47.78299        -0.05162
C         55.13777        49.94135        -0.10836
C         53.88793        50.65762         0.01748
C         55.11575        52.83657         0.29372
C         53.85475        52.08584         0.10511
C         55.10869        54.30086         0.04900
C         53.90188        54.98472        -0.04477
C         55.08096        57.18028         0.04273
C         53.87152        56.43527        -0.46594
C         55.10288        58.64431        -0.13890
C         53.86945        59.32942        -0.09111
C         55.09029        61.45236        -0.15495
C         53.86092        60.76399        -0.05628
C         56.34324        50.63929        -0.23586
C         57.60307        52.86150        -0.36233
C         56.44718        52.07022         0.03818
C         57.59848        54.27030        -0.27531
C         56.36512        54.97145        -0.06653
C         57.61394        57.18678        -0.16180
C         56.39045        56.42877         0.09460
C         57.58089        58.59865        -0.23053
C         56.33233        59.32606        -0.17461
C         57.56037        61.44824        -0.35439
C         56.32665        60.76398        -0.23305
C         58.79165        55.03377        -0.45126
C         60.01942        57.18383        -0.60512
C         58.82100        56.45568        -0.41163
C         60.02685        58.59836        -0.58965
C         58.79656        59.31527        -0.42776
C         60.01703        61.43787        -0.64093
C         58.78531        60.74937        -0.47169
C         61.23046        59.33793        -0.76495
C         61.21244        60.73129        -0.78061
O         45.56355        54.52681        -0.80302
O         46.00657        43.74474         2.20228
O         55.61449        56.80188         1.32910
O         48.47959        58.83179         2.05266
O         37.34603        57.97540         2.04804
O         46.60447        51.63208         2.38010
O         48.78846        50.48498         1.98944
O         43.74704        46.96465         2.20808
O         42.70928        53.58287         2.56382
O         46.33581        47.19045        -0.64742
O         40.22669        44.91907        -1.51340
O         32.98460        54.74837         1.45191
O         38.89115        60.34641         1.91947
O         42.53413        46.17901        -1.09069
O         50.73470        52.39675        -1.56953
O         35.67850        50.22764        -1.00694
O         48.05980        57.21682        -1.10956
O         55.92539        52.42099         1.40228
O         36.90372        48.12683        -1.05523
O         47.81099        52.29765        -0.96364
O         33.43980        57.99853        -2.71711
H         33.49923        58.85281        -3.19660
O         39.00401        52.57513        -1.12829
H         39.77331        52.11541        -1.53845
O         44.05555        59.09604        -1.02743
H         43.42209        59.69221        -1.47953
O         36.22970        55.03020         2.39492
H         36.57353        55.90035         2.70048
O         40.15786        49.97470         2.29221
H         39.86323        50.86009         2.59843
O         48.47020        54.77338        -1.71028
H         48.09042        55.61350        -2.06259
O         51.68628        46.27246         2.08641
H         52.54144        46.71031         2.28471
O         41.54214        41.95955        -1.64315
H         40.95625        42.66564        -1.99477
O         40.30922        58.65432        -0.89504
H         41.09371        58.11526        -1.13547
O         51.61352        54.93303        -1.93196
H         51.27693        54.04365        -2.21896
O         52.30998        54.39309         1.64125
H         53.11090        54.11504         2.13511
O         48.06481        54.61079         1.92502
H         47.61948        53.95752         2.50710
O         53.97195        56.44291        -1.92484
H         53.16889        55.96758        -2.26134
O         41.30602        59.45198         2.57459
H         40.47234        59.93762         2.78814
O         37.74453        52.48943         2.31690
H         37.10644        53.10642         2.74651
O         44.93983        58.71621         2.49234
H         45.78169        58.48311         2.93792
O         41.43813        50.82389        -1.05218
H         42.33459        51.03229        -1.39081
O         43.45432        43.28172         2.41089
H         44.28316        43.22810         2.94256
H         29.58064        56.40022        -1.46548
H         28.40001        58.50932        -1.95446
H         30.57765        62.24543        -2.06905
H         28.44392        60.97908        -2.29224
H         31.81665        52.14343        -0.03762
H         30.68228        54.31970        -0.88098
H         33.00848        62.28528        -1.63313
H         34.20648        47.87829         1.00668
H         33.00294        50.22357         1.01817
H         35.35999        62.38874        -0.94889
H         36.92235        43.72755         0.51961
H         35.73376        45.65716         0.91563
H         37.72516        62.49132        -0.38313
H         39.35105        39.40703         0.50427
H         38.13504        41.60633         0.65013
H         40.31387        62.47040        -0.18814
H         41.79995        35.12864        -0.24170
H         40.56466        37.26114         0.08148
H         42.70864        62.58369         0.42419
H         45.19183        31.78877        -0.83399
H         43.04066        33.00290        -0.55018
H         45.18471        62.57386         0.72865
H         47.35558        33.01471        -0.84348
H         48.61136        35.15393        -0.69830
H         47.68594        62.55793         0.52412
H         49.85523        37.29435        -0.56144
H         51.08922        39.44146        -0.44779
H         50.18258        62.55948         0.30113
H         52.31649        41.57266        -0.36797
H         53.54168        43.70166        -0.46125
H         52.61662        62.54783         0.10305
H         54.79388        45.82915        -0.44280
H         56.04248        47.96849        -0.34197
H         55.09112        62.55265        -0.15878
H         57.25437        50.09471        -0.52587
H         58.50139        52.34104        -0.72478
H         57.56515        62.54822        -0.38506
H         59.73654        54.49628        -0.62135
H         60.96142        56.64069        -0.77065
H         60.01898        62.53684        -0.66700
H         62.17910        58.79667        -0.88987
H         62.15381        61.28312        -0.91336
