         720
 CSIRO Nanostructure Databank - Neutral Graphene Oxide Data Set
C         22.97910        27.36776        -0.56612
C         23.00005        28.63255        -1.01050
C         23.01471        31.57166        -0.82762
C         22.99360        32.96193        -0.72142
C         23.27110        35.79071         0.26604
C         23.32120        37.10361         0.56841
C         23.05349        40.11993         0.49088
C         23.01751        41.44808         0.75047
C         23.08538        44.55435         1.16663
C         23.11096        45.90357         1.05892
C         25.43357        24.48335        -0.17635
C         24.27083        25.15811        -0.21697
C         25.50448        27.37912        -0.36336
C         24.22005        26.64114        -0.20291
C         25.52105        28.78640        -0.79242
C         24.25770        29.40969        -1.33094
C         25.44084        31.61525        -1.06442
C         24.21909        30.88803        -1.00417
C         25.38939        33.04019        -1.05597
C         24.17008        33.71224        -0.85292
C         25.34971        36.00047        -1.26055
C         24.00198        35.22780        -0.93601
C         25.40815        37.38608        -0.66210
C         24.36078        37.96181         0.01143
C         25.44414        40.16035         0.01531
C         24.30698        39.42599         0.19896
C         25.40482        41.66262        -0.05211
C         24.26871        42.25183         0.77025
C         25.53032        44.49026         0.55622
C         24.30853        43.75601         0.97830
C         25.55905        45.89411         0.58309
C         24.34506        46.63373         0.82698
C         25.60729        48.73247         0.75975
C         24.38174        48.02031         0.87008
C         27.91331        23.25118         0.81104
C         27.99183        24.54009         0.26829
C         26.76234        25.15051        -0.31008
C         28.01783        27.41150        -0.32489
C         26.78127        26.62980        -0.51071
C         27.98017        28.77754        -0.49083
C         26.71456        29.47572        -0.77291
C         27.93666        31.59698        -1.01757
C         26.71635        30.90796        -1.02015
C         27.94501        33.03953        -1.33759
C         26.62036        33.80274        -1.35841
C         27.88516        35.95323        -1.14945
C         26.65214        35.25563        -1.14197
C         27.91901        37.38637        -1.02343
C         26.62740        38.18477        -1.04788
C         28.00801        40.14451        -0.06608
C         26.71593        39.42895        -0.19252
C         27.98386        41.62655         0.06050
C         26.72994        42.35624         0.17310
C         27.96082        44.49563        -0.12992
C         26.72074        43.74201         0.28356
C         28.00393        45.95048         0.24870
C         26.80954        46.63264         0.45137
C         28.15882        48.77034         0.72907
C         26.80783        48.07522         0.58550
C         28.19884        50.26202         0.55313
C         30.25603        23.35959         1.42925
C         29.04335        22.66004         1.35275
C         30.32006        24.70872         1.02487
C         29.18989        25.28515         0.39758
C         30.49762        27.46190         0.11511
C         29.31165        26.62603        -0.30734
C         30.45011        28.87373        -0.23790
C         29.22755        29.53020        -0.50398
C         30.40947        31.68604        -0.81781
C         29.18333        30.93227        -0.77747
C         30.39122        33.10274        -0.98915
C         29.18128        33.82153        -1.15862
C         30.37965        35.96743        -1.66688
C         29.12794        35.22674        -1.24817
C         30.35225        37.44413        -1.36320
C         29.15961        38.09603        -1.03582
C         30.41252        40.19145        -0.56640
C         29.23491        39.51212        -0.62661
C         30.47708        41.51184         0.18256
C         29.18547        42.28013         0.07378
C         30.50516        44.48235         0.06314
C         29.21812        43.74770         0.23484
C         30.44070        45.92370        -0.21059
C         29.25757        46.66039         0.01333
C         30.30489        48.85282        -0.78729
C         29.25456        48.07260        -0.02419
C         30.55175        50.24305        -0.20468
C         29.37781        50.90345         0.27180
C         32.65793        20.49100         1.49148
C         31.49932        21.18963         1.46957
C         32.76613        23.34736         1.91973
C         31.42534        22.59061         2.01533
C         32.79245        24.85442         1.76963
C         31.46575        25.60791         1.49941
C         32.82915        27.74736         0.97371
C         31.60685        26.89515         0.69397
C         32.87045        28.99363         0.12322
C         31.68307        29.61980        -0.25844
C         32.88314        31.74366        -0.77800
C         31.65088        31.01971        -0.62394
C         32.91697        33.10987        -0.93681
C         31.65003        33.85135        -0.85127
C         32.93182        35.98248        -1.43587
C         31.64098        35.33112        -1.09644
C         32.91983        37.45674        -1.64499
C         31.60410        38.20105        -1.57458
C         32.95609        40.19506        -0.70605
C         31.64221        39.70854        -1.30633
C         32.95808        41.56789        -0.21032
C         31.69915        42.32549        -0.18209
C         32.93337        44.41833        -0.57880
C         31.73537        43.70068        -0.21463
C         32.73722        45.78842        -1.15434
C         31.73860        46.64946        -0.35579
C         32.58060        48.49208        -1.72287
C         31.55094        48.02069        -0.98897
C         32.94650        50.60959        -1.01201
C         31.82034        50.94345        -0.19625
C         33.18134        52.78750         0.65276
C         32.00008        52.06330         0.67032
C         35.14568        18.90468         1.59624
C         35.09989        20.28779         1.43797
C         33.94268        21.11651         1.63989
C         35.20625        23.23362         1.37132
C         34.02271        22.56380         1.64729
C         35.26398        24.72617         1.03376
C         34.16479        25.61930         1.69919
C         35.35528        27.61825         0.78719
C         34.15068        26.98156         1.00380
C         35.40995        28.94632         0.15757
C         34.14609        29.78441         0.14406
C         35.37690        31.52405        -1.40402
C         34.12175        30.92545        -0.86908
C         35.45510        33.05487        -1.50575
C         34.19545        33.84021        -1.16409
C         35.33280        36.03918        -1.86533
C         34.10131        35.29465        -1.48521
C         35.39157        37.48644        -1.52709
C         34.18592        38.17178        -1.36857
C         35.44502        40.24105        -0.85942
C         34.17193        39.54396        -0.94772
C         35.48189        41.64360        -0.72193
C         34.27728        42.37052        -0.32351
C         35.38422        44.47595        -1.04584
C         34.17376        43.79678        -0.66834
C         35.41336        45.92912        -1.47791
C         34.02663        46.52743        -1.43131
C         35.70345        49.07390        -1.41623
C         33.82915        47.78209        -1.87555
C         35.52992        50.45134        -1.07345
C         34.27613        51.12939        -0.80490
C         35.56876        53.12222         0.02738
C         34.32465        52.35594        -0.05221
C         35.56396        54.49689         0.43592
C         37.52418        18.68678         0.95084
C         36.33666        18.14373         1.39002
C         37.51927        20.11539         0.58514
C         36.28200        20.94422         0.86067
C         37.70266        23.08383         0.69735
C         36.43043        22.41851         1.11433
C         37.82926        24.55341         0.86592
C         36.65472        25.36844         1.23726
C         37.90117        27.61258         0.65562
C         36.66378        26.94381         1.12073
C         37.91697        29.03900         0.17439
C         36.57607        29.55461        -0.25984
C         37.80811        31.16185        -1.59994
C         36.61684        30.77474        -1.03741
C         37.81276        33.23339        -2.44401
C         36.64436        33.81496        -2.04974
C         37.89800        36.04363        -2.06736
C         36.59561        35.29890        -2.11771
C         37.88493        37.45742        -1.60439
C         36.63813        38.16297        -1.44456
C         37.89112        40.29895        -1.20311
C         36.66567        39.56350        -1.14626
C         37.90462        41.68790        -1.10142
C         36.67523        42.37655        -0.90769
C         37.82676        44.58917        -0.78328
C         36.60635        43.81846        -0.97864
C         37.73565        45.94283        -0.48439
C         36.43311        46.71850        -0.58700
C         37.79982        48.85238        -0.17572
C         36.69275        48.22764        -0.87084
C         37.88367        50.27722        -0.10107
C         36.85804        51.12998        -0.84496
C         38.08631        53.23853        -0.15628
C         36.77073        52.53513        -0.33230
C         37.99415        54.63317         0.41036
C         36.74569        55.22358         0.59728
C         40.02294        16.24329        -0.53003
C         38.84078        16.78856        -0.16583
C         40.09162        18.66174         0.94058
C         38.80042        17.83024         0.92507
C         40.08390        20.15507         0.78772
C         38.82846        20.82215         0.32992
C         40.21491        22.98797        -0.07333
C         38.86176        22.30047         0.12404
C         40.29909        24.34947         0.54646
C         39.15194        24.96090         1.08506
C         40.17241        27.26190        -0.22731
C         39.14963        27.10454         0.86617
C         40.32320        28.71578        -0.58284
C         39.14986        29.43012        -0.62890
C         40.28233        31.48296        -1.46065
C         39.13859        30.75671        -1.20837
C         40.33914        32.95847        -1.81416
C         39.17835        33.80611        -2.31507
C         40.36814        35.92375        -1.44694
C         39.20601        35.30029        -2.11935
C         40.28955        37.34393        -1.09359
C         39.08623        38.11488        -1.45196
C         40.42759        40.25984        -1.12096
C         39.16110        39.60199        -1.62573
C         40.53004        41.76277        -1.39516
C         39.12738        42.52061        -1.46420
C         40.18399        44.43105        -0.14602
C         39.07387        43.84949        -0.71053
C         40.07740        45.76339         0.48337
C         38.81460        46.59418         0.26250
C         40.00229        48.70103         0.93214
C         38.87536        48.07813         0.35947
C         40.05101        50.12370         1.05611
C         38.95227        50.89192         0.56531
C         40.06854        53.05827         1.46475
C         38.93696        52.36997         0.77812
C         40.32086        54.50153         1.21477
C         39.24716        55.28671         0.74425
C         40.64972        57.27650         0.82858
C         39.42133        56.69518         0.60395
C         42.51409        16.12355        -0.46435
C         41.31086        16.76307        -0.09321
C         42.61954        18.68418         0.68959
C         41.38872        18.00473         0.58979
C         42.59101        20.10717         1.23626
C         41.38795        20.86956         0.67077
C         42.74445        22.85875         0.03445
C         41.42956        22.18224         0.35925
C         42.72780        24.38080         0.12723
C         41.51312        25.06515         0.29951
C         42.77450        27.21532        -0.35330
C         41.46838        26.48336        -0.12989
C         42.76821        28.68941        -0.50250
C         41.59032        29.34692        -0.83644
C         42.75621        31.56875        -0.83520
C         41.61978        30.74759        -1.42758
C         42.82740        33.03565        -1.28659
C         41.43689        33.67169        -0.98566
C         42.59194        35.88094        -0.42399
C         41.45436        35.20373        -1.02580
C         42.77382        37.28396        -0.40360
C         41.53336        38.08040        -0.60041
C         42.89117        40.26782        -0.77734
C         41.54485        39.56076        -0.78004
C         42.76912        41.68727        -0.24088
C         41.56599        42.38676        -0.47479
C         42.60637        44.42930         0.37493
C         41.45872        43.73890        -0.07885
C         42.52057        45.84664         0.64860
C         41.31946        46.50375         0.71991
C         42.49323        48.63147         1.54586
C         41.21650        47.89317         1.24283
C         42.39022        50.07969         1.88684
C         41.20545        50.77558         1.65661
C         42.47932        52.92089         2.33695
C         41.17762        52.21648         2.00207
C         42.69186        54.34386         2.00979
C         41.58466        55.10044         1.50691
C         43.04960        57.06755         1.44332
C         41.76100        56.49635         1.25767
C         43.73988        16.71775        -0.22305
C         45.13277        18.67897         0.42147
C         43.84344        18.03734         0.31011
C         45.24629        20.05988         0.93001
C         43.95540        20.83155         1.10970
C         45.24497        22.92957         0.15596
C         43.95149        22.35537         0.87010
C         45.28522        24.44475         0.47623
C         43.96503        25.11773         0.11014
C         45.23850        27.26719         0.39023
C         43.99304        26.49867         0.02185
C         45.21255        28.71224        -0.06728
C         44.03448        29.36796        -0.36492
C         45.29006        31.58068        -0.38243
C         43.98962        30.85100        -0.39437
C         45.24218        33.08075        -0.34684
C         43.90112        33.73204        -0.47029
C         45.44809        36.02395         0.38554
C         43.60479        34.95442         0.05558
C         45.30294        37.41619         0.06896
C         44.02570        38.03682        -0.15045
C         45.22045        40.18024         0.13800
C         44.03584        39.46069        -0.19611
C         45.13961        41.61028         0.55330
C         43.88876        42.35836         0.29085
C         45.06578        44.52913         0.73523
C         43.85010        43.75793         0.51546
C         45.05677        45.89878         0.60280
C         43.77280        46.62569         0.56007
C         45.04550        48.89354         0.78351
C         43.75000        48.08524         0.89761
C         45.44417        49.75861         1.94897
C         43.50356        50.71117         2.52274
C         44.87532        52.76443         2.92609
C         43.66699        52.09153         2.57440
C         45.11177        54.11237         2.64076
C         43.97406        54.91709         2.16168
C         44.12180        56.30182         1.84975
C         47.57215        18.66378        -0.00910
C         46.33279        18.09101        -0.09104
C         47.86034        19.97707         0.67404
C         46.57710        20.80250         0.79443
C         47.77208        22.92286        -0.12937
C         46.56615        22.26799         0.50695
C         47.71223        24.40158        -0.41894
C         46.48344        25.17106        -0.11397
C         47.74063        27.29948        -0.09244
C         46.49959        26.53660        -0.03793
C         47.71578        28.71216         0.02635
C         46.47701        29.44082         0.02462
C         47.69125        31.59732         0.52447
C         46.49478        30.83562         0.01385
C         47.67051        33.08209         0.19567
C         46.50222        33.79562         0.05664
C         47.77715        35.98483        -0.22385
C         46.53366        35.25319         0.05381
C         47.79159        37.43529         0.03010
C         46.52721        38.14265         0.06794
C         47.69589        40.20638         0.83532
C         46.46275        39.54470         0.25062
C         47.72502        41.72371         0.76180
C         46.38982        42.36496         0.92984
C         47.60260        44.60338         0.72836
C         46.35363        43.87516         1.18429
C         47.56307        45.94600         0.46133
C         46.28696        46.66697         0.51749
C         47.50825        48.79100         0.23154
C         46.26230        48.03830         0.46304
C         47.63091        50.16884         0.86095
C         46.58598        50.51872         1.85435
C         47.84099        52.59932         2.36691
C         46.80980        51.70316         2.63093
C         47.65528        53.99214         2.69283
C         46.44548        54.65700         2.78179
C         50.34985        20.09335         0.21591
C         49.01994        20.73106        -0.08511
C         50.26114        22.93734         0.12945
C         49.07726        22.24069         0.07845
C         50.31794        24.39431        -0.18713
C         48.99794        25.16537        -0.49537
C         50.22450        27.27679         0.07824
C         48.96461        26.59931        -0.22865
C         50.23400        28.77498         0.14556
C         48.97554        29.48712        -0.30472
C         50.20032        31.56962         0.25610
C         48.99659        30.92323         0.16982
C         50.24896        33.02882         0.54105
C         48.94811        33.79568         0.43257
C         50.29033        35.95690         0.29135
C         49.05740        35.21552        -0.00929
C         50.26190        37.38331         0.30036
C         49.01439        38.08743         0.21307
C         50.22910        40.32555         0.51825
C         48.97128        39.57179         0.31961
C         50.21272        41.73372         1.08748
C         48.88616        42.42872         0.82057
C         50.12693        44.61705         0.45727
C         48.91390        43.92998         1.05589
C         50.06354        45.97004         0.13861
C         48.79441        46.69539         0.19523
C         49.95815        48.89718        -0.33847
C         48.76074        48.05763         0.03171
C         50.09086        50.18932         0.46836
C         48.96342        50.79237         1.05103
C         50.29714        52.69053         1.73771
C         49.04209        52.05294         1.70659
C         51.48252        20.79640         0.41724
C         52.68913        22.96655         0.67195
C         51.52987        22.25396         0.40691
C         52.64888        24.47715         0.85933
C         51.50453        25.16740         0.16257
C         52.72391        27.32327         0.12315
C         51.51675        26.55845         0.06800
C         52.75732        28.73992        -0.01240
C         51.51843        29.49092        -0.02693
C         52.64800        31.67768        -0.31126
C         51.45556        30.87780        -0.03120
C         52.66870        33.10902        -0.02871
C         51.51153        33.78616         0.33116
C         52.74127        35.96072         0.57512
C         51.47659        35.22409         0.44224
C         52.71968        37.43799         0.58939
C         51.51098        38.09435         0.49737
C         52.76021        40.35172         0.69179
C         51.48797        39.55736         0.73337
C         52.65832        41.80271         0.38425
C         51.43702        42.48955         0.57629
C         52.57037        44.56978        -0.01724
C         51.38082        43.88696         0.34835
C         52.60244        46.06946         0.07502
C         51.25797        46.72443        -0.15062
C         52.44980        48.84180        -0.44276
C         51.23549        48.10400        -0.30338
C         52.51999        50.20174        -0.09962
C         51.34508        50.84640         0.51180
C         51.41744        52.09885         1.15658
C         55.14505        23.00233         1.09308
C         53.98427        22.33412         0.87549
C         55.16881        24.50427         1.29184
C         54.01158        25.05380         0.37048
C         55.26652        27.35978         0.23975
C         54.00034        26.57087         0.11667
C         55.24843        28.83791         0.20434
C         54.00473        29.46121        -0.05505
C         55.27103        31.62718        -0.17023
C         54.02743        30.88897        -0.37077
C         55.24472        33.12855         0.02033
C         53.92113        33.84588        -0.44640
C         55.17753        36.08454        -0.31206
C         53.99279        35.24547         0.13981
C         55.29180        37.40687         0.43439
C         54.01697        38.16566         0.74577
C         55.13578        40.31303         0.04515
C         54.04008        39.63734         0.49540
C         54.98455        41.66770        -0.61329
C         53.79617        42.46380        -0.11457
C         54.94727        44.56027        -0.79380
C         53.76248        43.86709        -0.29349
C         54.83698        45.98720        -1.09019
C         53.69978        46.68709        -0.74210
C         54.92781        48.85256        -0.99432
C         53.60255        48.14041        -1.10836
C         54.91765        50.22146        -0.68279
C         53.75993        50.87799        -0.25811
C         57.78827        24.52421         0.76324
C         56.52489        25.23500         1.05637
C         57.76462        27.38660         0.28161
C         56.52208        26.69728         0.68729
C         57.75139        28.80262         0.16801
C         56.48428        29.53177         0.17991
C         57.72952        31.74459         0.19727
C         56.46097        30.96618         0.08459
C         57.76911        33.15052        -0.24807
C         56.45984        33.81288        -0.64217
C         57.76462        36.02006        -0.29942
C         56.47504        35.28092        -0.21464
C         57.74093        37.49887        -0.34663
C         56.55635        38.17787         0.19354
C         57.61226        40.37163        -0.61598
C         56.47149        39.68851         0.01700
C         57.49810        41.79773        -0.81438
C         56.27562        42.46076        -0.69432
C         57.27499        44.54545        -1.66058
C         56.15027        43.87641        -0.95494
C         57.13319        45.97778        -2.12449
C         55.97117        46.72367        -1.61767
C         57.39897        48.73495        -1.47823
C         56.08153        48.11167        -1.38940
C         58.90948        25.19571         0.40042
C         60.16695        27.32519        -0.00981
C         58.95742        26.64072         0.23155
C         60.17724        28.71450        -0.08637
C         58.99654        29.47340         0.03198
C         60.22862        31.71380        -0.32322
C         59.05842        30.95894         0.13531
C         60.19535        33.06741        -0.47624
C         58.96191        33.81668        -0.44932
C         60.17857        36.10641        -0.83378
C         58.92574        35.27111        -0.93258
C         60.11918        37.45828        -0.83352
C         58.87301        38.21792        -0.68651
C         59.97849        40.41830        -1.24793
C         58.80896        39.67049        -0.82804
C         59.97667        41.77078        -1.31409
C         58.75948        42.55174        -1.03879
C         59.75542        44.71844        -2.17105
C         58.65385        43.99967        -1.48322
C         59.61971        45.96723        -2.63956
C         58.33024        46.75829        -2.66499
C         58.46985        48.10031        -1.99199
O         44.54797        49.88260         3.00755
O         39.38265        26.12403         1.82670
O         54.82277        26.85683        -1.08446
O         57.26148        35.49525         0.98557
O         35.75268        35.74673        -3.25142
O         56.86227        44.85208        -3.04061
O         47.57237        23.41083        -1.49190
O         52.15129        39.95443         1.96838
O         32.80374        24.22033         3.10375
O         26.90328        25.71538        -1.67833
O         44.72512        20.37531         2.26224
O         36.55466        20.46449        -0.48450
O         34.50000        30.72802        -2.27280
O         43.00156        31.38675         0.58140
O         49.53424        33.49788         1.74735
O         23.11636        35.48571        -2.00664
O         39.98332        19.52673         2.11082
O         40.23015        33.31509        -3.21237
O         37.48887        22.60722         2.12841
O         36.78832        26.24392         2.38021
O         32.67431        49.83543        -2.14949
O         38.69394        35.97612        -3.31068
O         41.15878        41.90410        -2.66446
O         27.27665        33.36305        -2.60240
O         46.74781        21.81012         1.85959
O         49.87439        24.71848        -1.55998
O         45.54580        24.64448         1.86024
O         44.40638        35.42973         1.09502
O         58.95062        43.67772        -0.09173
O         48.55737        35.47555        -1.35976
O         37.75790        31.88920        -2.78737
O         29.92943        44.17081         1.43174
O         42.08429        26.55286        -1.47849
O         27.47308        39.34600         1.05992
O         56.64235        26.29004         2.09382
O         43.54355        47.64070        -0.50309
O         54.84327        37.54804         1.79287
O         40.51547        37.61691         0.35633
O         41.46864        52.60677         3.37975
O         49.63643        40.23775        -0.81258
O         31.57705        34.87228         0.27148
O         53.68682        35.31455         1.53495
O         41.82445        47.87138         2.60085
O         53.29274        31.30343        -1.57913
O         35.22282        33.58158        -0.13863
O         45.86092        52.03293         3.61478
O         45.51376        32.35851        -1.63987
O         24.61142        42.78582         2.07198
O         38.79426        52.77744         2.17008
O         45.58990        41.69590         1.98555
O         56.86621        39.08050         1.29289
O         50.10114        28.04227         1.37832
O         33.77836        41.89321         0.95982
O         34.85801        48.55746        -2.40535
O         38.73734        21.39156        -1.02361
O         32.23862        37.89260        -2.87928
O         47.30794        50.02044        -0.56437
O         39.08209        45.90826         1.54969
O         24.90097        27.20910         0.98408
O         58.50171        31.46079         1.39462
O         30.49926        35.77763        -3.11050
H         29.75245        36.23978        -3.54572
O         29.73477        49.08696        -2.12474
H         30.44195        49.49538        -2.67131
O         49.08300        44.08927         2.51873
H         48.16801        44.05178         2.90746
O         42.85642        22.53421        -1.38128
H         42.01671        22.86879        -1.79515
O         31.02996        26.09670         2.81487
H         31.29585        25.40965         3.47101
O         35.88647        45.95598        -2.84065
H         35.82137        46.88481        -3.15781
O         35.84898        46.71417         0.74127
H         36.55793        46.87651         1.39980
O         45.26221        27.30802         1.84586
H         45.39382        26.35018         2.13029
O         53.86620        33.96516        -1.88172
H         53.80627        33.04661        -2.24550
O         42.31298        20.00598         2.65047
H         43.17868        20.02461         3.12104
O         26.45863        38.64304        -2.42603
H         26.07415        37.86784        -2.91495
O         34.97735        24.79797        -0.39498
H         35.58482        24.19651        -0.87520
O         29.58471        26.29599        -1.71068
H         28.73685        25.94509        -2.08386
O         48.70661        20.52085        -1.49433
H         49.14549        21.22200        -2.02178
O         44.79169        49.84237        -0.28808
H         44.52510        49.30983        -1.07178
O         45.21086        22.71875        -1.25566
H         44.59486        23.34859        -1.68709
O         28.50390        48.56978         2.16070
H         27.74859        48.90202         2.69192
O         46.36557        44.02795         2.65110
H         45.79451        43.30166         3.00204
O         27.94293        44.46299        -1.60321
H         27.11443        44.89285        -1.90448
O         25.04755        41.97885        -1.44681
H         25.54656        41.37189        -2.03552
O         58.04540        47.03251        -4.06550
H         57.63247        46.21753        -4.42920
O         43.27244        40.39876        -2.17687
H         42.54512        40.95886        -2.60339
O         49.75627        49.31966        -1.72444
H         48.87747        49.77062        -1.74618
O         54.65985        41.33943        -2.01607
H         54.59772        42.18484        -2.51121
O         43.74669        22.91880         2.16484
H         44.53098        23.49522         2.41662
O         24.36577        29.33126        -2.79568
H         25.04933        29.97413        -3.08278
O         38.90457        42.86449        -2.84779
H         39.74848        42.57922        -3.30888
O         41.07827        33.33366         0.37318
H         41.85521        33.45638         0.96085
O         52.36655        24.74922         2.24807
H         53.15210        24.47767         2.78583
O         43.08576        33.10369        -2.69522
H         44.04098        32.88344        -2.81927
O         37.43649        51.21833        -2.23628
H         36.71672        51.52690        -2.82901
O         55.35666        33.27543         1.44453
H         55.81766        34.10915         1.68424
O         54.21352        24.42816        -0.91619
H         54.60116        25.10258        -1.52251
O         48.31514        19.67725         2.00928
H         47.99893        20.40474         2.59243
O         47.58198        31.54864         1.98606
H         48.29774        32.12930         2.34476
O         52.95124        46.36986         1.48086
H         52.33595        45.86084         2.05163
O         30.64760        41.17513         1.59396
H         30.62173        42.01989         2.09678
O         54.98920        36.43995        -1.69964
H         54.75317        35.61052        -2.18738
O         53.27259        48.16913        -2.55495
H         53.00355        49.08623        -2.77726
O         32.28883        46.85239         0.97165
H         31.55776        47.06777         1.58847
O         58.59783        35.21533        -2.37204
H         59.40131        34.92304        -2.85258
O         32.67068        28.25892         2.35466
H         32.16952        27.56849         2.86266
O         54.87387        24.68609         2.69603
H         55.35782        25.49356         3.00119
O         40.32532        23.24213        -1.51548
H         39.84716        22.50212        -1.96319
O         39.24718        39.76072        -3.08472
H         38.40207        39.45555        -3.47786
O         41.95865        30.55824        -2.83603
H         42.04022        31.45466        -3.24355
O         50.30507        41.64560         2.52473
H         50.06458        42.53488         2.88469
O         38.14747        29.80973         1.42301
H         37.38718        29.64805         2.02315
O         39.48050        26.65680        -1.37968
H         40.15847        26.56638        -2.08981
O         32.09000        45.58437        -2.44850
H         32.68578        45.04269        -3.00829
O         38.82444        17.08154         2.17093
H         39.09622        17.71200         2.87454
O         31.58814        40.38451        -2.60192
H         31.97052        39.75188        -3.25784
O         38.80600        53.34465        -1.41593
H         38.55720        52.55154        -1.96011
O         34.50115        25.93092         3.05300
H         34.46207        25.10497         3.58333
O         31.12136        22.38543         3.42764
H         31.58471        23.09023         3.93474
O         47.65164        39.86656         2.25013
H         46.86391        40.32808         2.62493
O         56.33942        33.71035        -2.07290
H         57.10653        34.20163        -2.46695
O         34.13186        30.47026         1.44185
H         33.77947        29.83236         2.10952
O         49.05070        29.52824        -1.76720
H         48.26664        30.01338        -2.10204
O         25.32641        36.16648        -2.71216
H         24.34672        35.98714        -2.93695
H         22.02004        26.84085        -0.44304
H         22.04667        29.10276        -1.29332
H         22.06550        31.02124        -0.78599
H         22.03308        33.48426        -0.61989
H         22.50915        35.15046         0.73665
H         22.64920        37.52736         1.32945
H         22.12471        39.53256         0.52269
H         22.07097        41.92776         1.04024
H         22.14837        44.03474         1.41227
H         22.18908        46.48615         1.20447
H         25.40775        23.38412        -0.14929
H         23.31602        24.61062        -0.20851
H         25.57841        49.82865         0.84075
H         23.45284        48.58364         1.03788
H         26.97189        22.68841         0.78789
H         27.34287        50.86021         0.89928
H         28.96985        21.64487         1.76176
H         29.40559        51.99984         0.37611
H         32.63862        19.42173         1.23684
H         30.56394        20.66137         1.24354
H         33.25411        53.67906         1.28998
H         31.18605        52.37914         1.33479
H         34.26642        18.37252         1.98605
H         34.60773        54.99819         0.63643
H         36.31383        17.07566         1.65103
H         36.68575        56.26164         0.95671
H         40.04117        15.40556        -1.24423
H         37.89465        16.38856        -0.55819
H         40.78751        58.35563         0.66878
H         38.57887        57.30712         0.25195
H         42.47162        15.13956        -0.95269
H         43.18950        58.13898         1.23883
H         44.64781        16.16399        -0.49420
H         45.10507        56.77954         1.95404
H         48.42827        18.11195        -0.42475
H         46.26791        17.11104        -0.58510
H         48.55581        54.62689         2.69646
H         46.51882        55.75290         2.86111
H         50.38552        18.99414         0.24532
H         50.40378        53.66329         2.23745
H         52.41136        20.24514         0.62122
H         52.37887        52.62781         1.21514
H         56.07013        22.42727         1.24772
H         54.03845        21.23750         0.80451
H         55.85068        50.80093        -0.73407
H         53.83116        51.94425        -0.00330
H         57.80876        23.42699         0.82689
H         57.51887        49.74895        -1.07052
H         59.83698        24.63378         0.21362
H         61.10965        26.76429        -0.07668
H         61.14227        29.22650        -0.20283
H         61.16046        31.17576        -0.54780
H         61.11876        33.58912        -0.76699
H         61.16088        35.61324        -0.88263
H         61.06537        38.01845        -0.84898
H         60.90893        39.87707        -1.46689
H         60.90375        42.30943        -1.55353
H         60.74010        44.22932        -2.21213
H         60.48585        46.45999        -3.10789
H         59.44791        48.60164        -2.03055
