         470
 CSIRO Nanostructure Databank - Neutral Graphene Oxide Data Set
C         37.42972        50.21255        -1.01176
C         36.29384        50.93236        -0.81385
C         37.50504        53.04862        -0.64524
C         36.33311        52.36013        -0.62499
C         40.11678        48.88526        -1.64270
C         39.98995        50.13967        -1.09168
C         38.71499        50.88893        -1.22813
C         40.06313        53.03022        -0.71041
C         38.75543        52.39141        -1.05074
C         40.15900        54.46680        -0.84977
C         42.49624        48.77299        -1.06171
C         41.32661        48.16173        -1.56941
C         42.45349        50.10030        -0.61469
C         41.12586        50.75784        -0.30946
C         42.37347        52.95152         0.13893
C         41.16985        52.27738        -0.39623
C         42.42183        54.47215         0.09352
C         41.29546        55.14820        -0.55878
C         44.83795        45.85810        -0.60133
C         43.68766        46.59924        -0.83789
C         44.97842        48.65682        -0.69013
C         43.74037        48.00068        -0.90391
C         44.97198        50.16991        -0.82951
C         43.70778        50.74634        -0.17576
C         44.94142        52.97997         0.19638
C         43.67857        52.20611         0.20086
C         44.92176        54.37125         0.37286
C         43.74095        55.14823         0.23306
C         45.04294        57.22234         0.41240
C         43.82434        56.54785         0.25515
C         47.30652        44.26717        -0.33921
C         47.31868        45.71066        -0.30780
C         46.07830        46.49098        -0.41197
C         47.47713        48.61577        -0.25013
C         46.14061        47.90871        -0.44937
C         47.24695        49.99430         0.41839
C         46.31508        50.86894        -0.45268
C         47.39235        52.87318         0.45332
C         46.18649        52.25336         0.17295
C         47.43818        54.38138         0.42276
C         46.16497        55.03974         0.93823
C         47.47092        57.19473         0.91891
C         46.23192        56.54020         0.71172
C         47.64753        58.57861         0.72711
C         49.75071        44.15089        -0.30268
C         48.43793        43.52861        -0.15969
C         49.77746        45.70433        -0.28971
C         48.50956        46.37596        -0.07336
C         49.80579        48.43093         0.76677
C         48.44197        47.73804         0.57746
C         49.82105        49.96234         0.88791
C         48.58249        50.71740         0.63380
C         49.87578        52.81329         0.77234
C         48.62999        52.11170         0.57433
C         49.85336        54.25216         0.96720
C         48.68263        54.98222         1.00900
C         49.93561        57.12382         1.64157
C         48.58309        56.39479         1.56681
C         50.01225        58.59491         1.43612
C         48.83597        59.25070         0.99796
C         52.27810        41.48912         0.68523
C         51.06333        42.13163         0.45548
C         52.22644        44.20275        -0.08267
C         51.01424        43.47895         0.06495
C         52.27241        45.65667        -0.17703
C         51.04737        46.40356        -0.00630
C         52.35556        48.41894         0.56800
C         51.05370        47.73330         0.37027
C         52.37015        49.90693         0.87611
C         51.10801        50.68950         0.82847
C         52.40972        52.84283         0.98047
C         51.10538        52.08446         0.88081
C         52.26331        54.29678         0.64181
C         51.13451        54.94074         1.04040
C         52.50139        57.06336         1.32106
C         51.21023        56.34966         1.46817
C         52.53029        58.48522         1.83765
C         51.25101        59.25590         1.55728
C         52.55115        61.32685         1.66875
C         51.34204        60.67473         1.57059
C         54.90552        40.29188         1.38376
C         54.79791        41.49095         0.64665
C         53.49950        42.13827         0.40901
C         54.62912        44.14445        -0.58137
C         53.44252        43.48577        -0.02044
C         54.69790        45.61223        -0.61422
C         53.50435        46.33576        -0.25108
C         54.77570        48.43779        -0.14991
C         53.58209        47.76291         0.00934
C         54.87964        49.89568         0.17393
C         53.70101        50.66985         0.82430
C         54.62437        52.82476        -0.14728
C         53.57612        52.11526         0.35153
C         54.62078        54.31352        -0.06633
C         53.60842        54.87995         0.91011
C         54.91038        57.09724         0.82083
C         53.64929        56.38242         1.02556
C         54.96014        58.50813         1.08740
C         53.78735        59.22461         1.44568
C         55.05097        61.33748         1.48113
C         53.79841        60.62618         1.55968
C         55.14676        62.72295         1.74806
C         57.35220        40.33799         1.25767
C         56.14549        39.74102         1.68165
C         57.27562        41.56011         0.51938
C         55.99861        42.11078         0.22833
C         57.16424        44.13966        -0.73652
C         55.94479        43.37371        -0.51226
C         57.07351        45.44919        -1.23033
C         55.88684        46.25207        -0.97250
C         57.13707        48.56754        -1.17163
C         55.98969        47.72333        -0.67709
C         57.10648        50.04013        -1.12883
C         55.95665        50.71138        -0.48110
C         57.04335        52.90251        -1.07422
C         55.71913        52.13440        -0.93846
C         57.09871        54.39674        -0.82756
C         55.86805        55.10402        -0.33597
C         57.28350        57.13170         0.13261
C         56.03130        56.45225         0.27275
C         57.35253        58.52741         0.43185
C         56.18419        59.21960         0.86938
C         57.46783        61.32984         0.99486
C         56.23373        60.62427         1.13133
C         57.54613        62.72447         1.30398
C         56.35983        63.38914         1.68482
C         60.05942        37.91349         2.43802
C         58.79176        38.52600         2.22971
C         59.80670        40.19361         0.75316
C         58.63169        39.67468         1.47815
C         59.78470        41.62502         0.32526
C         58.46609        42.23783         0.04572
C         59.62603        44.09180        -1.20955
C         58.42181        43.48423        -0.57318
C         59.54459        45.48698        -1.71715
C         58.25911        45.95039        -1.90303
C         59.51116        48.55334        -1.82068
C         58.25737        48.07240        -2.01161
C         59.60537        49.91914        -1.17071
C         58.30052        50.71251        -1.22346
C         59.52035        52.86831        -1.12504
C         58.32348        52.15610        -1.09924
C         59.56806        54.27988        -0.84917
C         58.41554        55.02927        -0.60059
C         59.71692        57.12643        -0.36417
C         58.47383        56.42925        -0.26569
C         59.76722        58.55484        -0.20391
C         58.57088        59.25790         0.21689
C         59.78684        61.43665         0.13710
C         58.60604        60.63756         0.49572
C         59.93773        62.79556         0.69695
C         58.82114        63.41662         1.24518
C         60.09848        65.47499         1.63999
C         58.95394        64.77560         1.74791
C         62.65281        36.63424         2.89259
C         62.54727        37.82773         2.15583
C         61.23252        38.39283         1.88349
C         62.40281        40.21823         0.57364
C         61.15690        39.52080         0.94533
C         62.28820        41.38746        -0.30356
C         61.03524        42.20556        -0.24796
C         62.20434        44.11508        -1.55318
C         60.93526        43.37444        -1.18946
C         62.12374        45.58075        -1.97269
C         60.76198        46.24801        -2.14354
C         62.04280        48.53200        -2.01019
C         60.74764        47.80339        -2.18100
C         62.02403        49.94525        -1.97654
C         60.74096        50.67141        -1.82194
C         62.03291        52.83612        -1.65096
C         60.73473        52.16929        -1.62612
C         62.14010        54.21495        -1.14774
C         60.88051        54.94471        -0.70494
C         62.15979        57.08292        -0.75829
C         60.92471        56.41765        -0.64138
C         62.21034        58.51319        -0.60509
C         60.99041        59.23271        -0.37601
C         62.31738        61.43866        -0.30169
C         61.01021        60.70782        -0.36334
C         62.38506        62.76036         0.36098
C         61.23811        63.43842         0.69992
C         62.61912        65.25032         1.75923
C         61.34119        64.92566         0.99356
C         62.65892        66.42484         2.58747
C         65.06179        36.62189         2.60977
C         63.88935        36.03620         3.09876
C         65.01280        37.86241         1.91824
C         63.73428        38.44964         1.66076
C         64.86238        40.36022         0.50296
C         63.64475        39.67801         0.89249
C         64.82103        41.62005        -0.12242
C         63.56296        42.17056        -0.63766
C         64.64343        44.35184        -1.11929
C         63.48193        43.58763        -1.03129
C         64.58290        45.76466        -1.51420
C         63.35600        46.40107        -1.79619
C         64.50450        48.59585        -1.96297
C         63.29573        47.83699        -1.94761
C         64.46924        50.02452        -2.17077
C         63.20350        50.70899        -2.15187
C         64.35981        52.93721        -2.42627
C         63.16411        52.15139        -2.05930
C         64.44728        54.37944        -2.08769
C         63.33661        55.00172        -1.46948
C         64.60633        57.06514        -1.24078
C         63.36873        56.37883        -1.14101
C         64.66727        58.45438        -0.87377
C         63.45955        59.17286        -0.65166
C         64.84338        61.20264        -0.00164
C         63.56370        60.63706        -0.47732
C         64.92033        62.49566         0.52743
C         63.73805        63.43278         0.47663
C         65.02920        64.86260         2.16017
C         63.77104        64.51118         1.53634
C         65.03975        66.04723         3.04555
C         63.80751        66.81868         3.19032
C         67.53200        33.78979         2.74433
C         66.37286        34.47837         2.91046
C         67.64786        36.64848         2.48120
C         66.35645        35.94425         2.87228
C         67.53699        37.90551         1.69803
C         66.22983        38.50170         1.45716
C         67.31533        40.40995         0.31995
C         66.13540        39.74700         0.78299
C         67.27560        41.72759        -0.14400
C         66.00293        42.40102        -0.31282
C         67.11443        44.55662        -0.81453
C         65.89939        43.73780        -0.76337
C         67.07191        45.92337        -1.34261
C         65.80695        46.52970        -1.56859
C         66.99154        48.66686        -1.81761
C         65.76875        47.93222        -1.82296
C         66.92883        50.12993        -1.84451
C         65.66538        50.76227        -2.20966
C         66.93530        52.95440        -2.59270
C         65.67454        52.18242        -2.54803
C         66.82144        54.43088        -2.97921
C         65.65454        55.07599        -2.25821
C         67.05233        57.01899        -1.63644
C         65.77484        56.39262        -1.73203
C         67.13892        58.29362        -0.92132
C         65.91990        59.09248        -0.72343
C         67.27935        61.04155         0.01462
C         66.01600        60.43195        -0.22672
C         67.35501        62.23186         0.74056
C         66.16861        62.96922         1.03299
C         67.54082        64.71817         2.17755
C         66.21015        64.17357         1.84118
C         67.64094        66.13552         2.73279
C         66.40687        66.78838         3.26129
C         67.53681        68.96581         3.05386
C         66.45385        68.24275         3.43362
C         71.16414        32.56136         3.92504
C         70.87156        33.67353         3.12871
C         68.77428        34.45807         2.47571
C         70.10612        36.52901         1.95841
C         68.87542        35.82887         2.30957
C         70.00305        37.81662         1.34391
C         68.69435        38.42828         1.13955
C         69.80442        40.47238         0.16345
C         68.58048        39.59248         0.17971
C         69.69693        41.72367        -0.62658
C         68.48853        42.37518        -0.62425
C         69.61275        44.53725        -1.39294
C         68.46189        43.83232        -0.84303
C         69.56409        45.93140        -1.52410
C         68.28965        46.62818        -1.50181
C         69.48510        48.78257        -1.94147
C         68.25112        48.03762        -1.73771
C         69.47527        50.16929        -2.18348
C         68.22566        50.92378        -2.01049
C         69.37083        52.96176        -3.00953
C         68.13528        52.31508        -2.51064
C         69.33583        54.46478        -3.27167
C         68.13854        55.15344        -2.77263
C         69.52273        57.12156        -2.14687
C         68.23540        56.40027        -2.15477
C         69.62311        58.41815        -1.58169
C         68.47830        58.99530        -0.86245
C         69.79458        61.04956        -0.34483
C         68.45736        60.49861        -0.73426
C         69.88467        62.14740         0.48736
C         68.70501        62.65683         1.29146
C         69.89285        64.87898         1.41615
C         68.74338        64.15403         1.50204
C         69.83963        66.36480         1.50168
C         68.74295        66.99801         2.25262
C         69.89574        69.18917         2.14621
C         68.71262        68.36963         2.43872
C         69.91410        70.56982         2.44478
C         72.97070        33.81223         4.93469
C         72.22445        32.63469         4.83069
C         72.68084        34.90633         4.11822
C         71.62550        34.85695         3.18721
C         72.53557        36.68090         1.84132
C         71.39063        36.00965         2.28967
C         72.43923        37.88460         1.14711
C         71.19617        38.48646         0.93860
C         72.30998        40.53321        -0.21074
C         71.14317        39.88935         0.44022
C         72.19667        41.63857        -0.97207
C         70.90309        42.30033        -1.24110
C         72.06117        44.57408        -1.86717
C         70.83965        43.78482        -1.69666
C         72.01303        45.93076        -1.88559
C         70.77346        46.66549        -1.79724
C         71.93252        48.81935        -2.22070
C         70.73578        48.06828        -1.97880
C         71.91074        50.16375        -2.46160
C         70.67873        50.89782        -2.49117
C         71.84945        53.07574        -2.88890
C         70.65601        52.27605        -2.80586
C         71.85283        54.41355        -3.12067
C         70.63594        55.23403        -3.49128
C         71.80367        57.37804        -2.96202
C         70.64858        56.59055        -2.81426
C         71.89764        58.64548        -2.40636
C         70.81776        59.19131        -1.67465
C         72.21409        61.06047        -0.73419
C         70.94366        60.44607        -0.95447
C         72.35422        62.16258         0.06511
C         71.20055        62.74210         0.75212
C         72.39298        65.07725         1.00409
C         71.20749        64.22662         1.21318
C         72.34441        66.42353         1.01528
C         71.08202        67.17650         1.21556
C         72.26367        69.36489         1.56545
C         71.09605        68.59000         1.67308
C         72.25874        70.72044         1.88272
C         71.07291        71.32594         2.30992
O         69.82719        33.56893         2.19551
O         50.65099        56.60634         2.82490
O         38.72773        51.80197        -2.39933
O         67.60980        50.76765        -0.68764
O         63.85236        64.18320        -0.86622
O         62.88656        41.27209        -1.61208
O         62.29923        44.50629        -2.95428
O         67.16212        36.66787         3.86801
O         56.96547        53.86575        -2.18534
O         60.31538        39.27128        -0.25678
O         52.86271        53.11272         2.39739
O         55.12107        43.39876        -1.73747
O         63.00721        61.42195        -1.61156
O         42.07701        53.75065         1.33381
O         60.06371        43.15719        -2.32066
O         67.94325        44.47471         0.39141
O         43.71888        51.13173         1.23216
O         58.01708        46.97427        -2.83206
O         49.86047        44.93740        -1.53030
O         68.02021        58.25910         0.29550
O         64.85062        52.53226        -3.73226
O         56.07260        50.35793         0.92386
O         60.08791        61.33728        -1.30939
O         61.75996        54.29430         0.28540
O         54.75328        55.05534        -1.31140
O         49.83155        49.04182         2.09437
O         53.88338        54.21857         2.23853
O         70.44940        40.74737         1.44532
O         71.43239        63.12710         2.16345
O         68.30506        61.04554        -2.15324
O         67.95925        64.97495         3.56846
O         52.47251        48.90691         1.95580
O         69.11925        53.51875        -4.37796
O         57.19201        47.96618         0.18973
O         60.67983        46.99142        -3.39080
O         70.07239        66.96242         0.16310
O         70.69688        42.66904        -2.64540
O         60.66496        42.51333         1.13758
O         60.40016        51.51753        -2.93782
O         65.78805        66.00294         4.30288
O         47.03769        51.13179        -1.68973
H         46.35932        51.27958        -2.39097
O         48.14433        56.23800         2.94727
H         48.92927        55.93981         3.46168
O         47.49855        54.71713        -1.01118
H         48.22103        54.18823        -1.41187
O         61.46488        65.60288        -0.29215
H         62.27641        65.24852        -0.73480
O         46.08342        54.77273         2.35732
H         45.34252        55.29358         2.72968
O         47.87333        47.50817         1.89577
H         48.51946        47.86762         2.55297
O         59.94231        49.78839         0.23384
H         59.17381        49.38242         0.69262
O         40.87199        50.47139         1.11618
H         41.69485        50.72509         1.60016
O         55.18397        51.98843        -2.28081
H         55.36929        52.83966        -2.74550
O         68.52523        39.00693        -1.16600
H         67.68272        38.51173        -1.24636
O         44.75198        50.45157        -2.25165
H         44.07119        49.82630        -2.58253
O         67.19345        60.36294        -2.78354
H         66.58914        61.10529        -3.02942
O         52.63132        58.35668         3.29826
H         51.90585        57.74195         3.57322
O         46.56986        49.81559         1.66881
H         46.87371        48.96270         2.06892
O         48.14622        48.77056        -1.51554
H         47.77612        49.57674        -1.95967
O         54.07393        50.85254         2.20933
H         53.83627        50.02628         2.68851
O         68.81593        62.04052         2.60795
H         69.68133        62.33033         2.98068
O         70.74836        55.49982        -4.91764
H         70.42436        54.69010        -5.37437
O         66.53367        54.51270        -4.40355
H         67.28056        54.06445        -4.86574
O         65.08712        64.93726        -0.84269
H         65.62358        64.49508        -1.54479
H         37.40768        49.11330        -0.98111
H         35.33284        50.41576        -0.67913
H         37.53528        54.10110        -0.32727
H         35.40117        52.87347        -0.34828
H         39.25912        48.43190        -2.16108
H         39.30974        54.99701        -1.30384
H         41.36091        47.13875        -1.96521
H         41.38287        56.21065        -0.82538
H         44.75733        44.76422        -0.56446
H         42.73031        46.07559        -0.95832
H         45.03975        58.31866         0.33535
H         42.91387        57.14613         0.11315
H         46.33898        43.74724        -0.33142
H         46.81371        59.17088         0.32393
H         48.36562        42.44969         0.03639
H         48.87039        60.32954         0.79441
H         52.26823        40.44232         1.01684
H         50.12971        41.56793         0.58826
H         52.55028        62.42322         1.72734
H         50.42306        61.27687         1.54113
H         54.00219        39.78072         1.74271
H         54.25255        63.29095         2.03636
H         56.17526        38.80129         2.24925
H         56.37624        64.46265         1.91287
H         60.08441        37.05116         3.11777
H         57.93091        38.08337         2.74957
H         60.10294        66.52422         1.96591
H         58.08246        65.25812         2.21096
H         61.75638        36.14726         3.29627
H         61.74998        67.01993         2.73766
H         63.93975        35.10221         3.67397
H         63.81253        67.69112         3.85728
H         67.53215        32.69137         2.74400
H         65.42131        33.93140         2.96734
H         67.51689        70.04942         3.22583
H         65.60522        68.74606         3.91695
H         70.56662        31.64580         3.82742
H         69.00420        71.07505         2.79295
H         73.79584        33.87621         5.65679
H         72.46739        31.77011         5.46342
H         73.27779        35.82428         4.21377
H         73.52857        36.26289         2.05517
H         73.36212        38.38529         0.82741
H         73.30275        40.07567        -0.09413
H         73.08980        42.04575        -1.46737
H         73.01592        44.05423        -2.02414
H         72.95410        46.47702        -2.02879
H         72.90442        48.31016        -2.22827
H         72.85805        50.67944        -2.66443
H         72.81605        52.58974        -2.69395
H         72.82104        54.93463        -3.14540
H         72.64771        56.98670        -3.54585
H         72.81816        59.22558        -2.55454
H         73.11299        60.62564        -1.19236
H         73.35111        62.58467         0.24970
H         73.36467        64.57406         0.89756
H         73.28173        66.98637         0.90066
H         73.19466        68.90910         1.20223
H         73.17786        71.31265         1.77831
H         71.05584        72.39847         2.54699
