         656
 CSIRO Nanostructure Databank - Neutral Graphene Oxide Data Set
C          6.18612        31.90988        -1.61315
C          6.21472        33.26152        -1.54661
C          8.30621        27.49112        -1.29915
C          8.29230        28.88026        -1.02006
C          7.16935        29.68340        -1.21216
C          8.25591        31.69333        -0.27566
C          7.20084        31.09916        -0.97433
C          8.17983        33.10671         0.12378
C          7.09711        33.96003        -0.59994
C          7.87371        36.31991        -0.10912
C          7.25132        35.41459        -0.85690
C          8.12192        37.45947         0.50374
C         10.78072        23.29764        -0.83567
C         10.77994        24.65431        -1.06377
C          9.55588        25.37645        -1.28073
C         10.79895        27.56163        -1.44679
C          9.51819        26.76728        -1.30200
C         10.72277        28.91469        -0.76790
C          9.52790        29.52861        -0.56936
C         10.64240        31.50748         0.65254
C          9.33548        30.77478         0.27843
C         10.62450        32.95834         1.04748
C          9.36865        33.83373         0.79323
C         10.79114        35.97427         0.56792
C          9.90991        34.97862        -0.12291
C         10.70737        37.32205         0.73497
C          9.43470        38.16114         0.77348
C         10.75021        40.16988         0.10463
C          9.60422        39.43650        -0.02234
C         10.82036        41.53975        -0.33938
C         13.26860        18.99661        -0.34313
C         13.22605        20.41973        -0.56815
C         12.02938        21.11946        -0.47726
C         13.27763        23.30083        -0.67874
C         11.99759        22.60732        -0.28625
C         13.27948        24.68602        -0.85293
C         12.03056        25.41562        -0.96896
C         13.27279        27.52394        -0.88444
C         12.03660        26.79137        -1.05263
C         13.26999        28.89329        -0.61134
C         11.99523        29.63551        -0.54586
C         13.24352        31.42821         0.83425
C         11.96097        30.95704         0.15213
C         13.24545        32.96588         1.00125
C         11.94942        33.71032         1.17085
C         13.25983        35.89495         1.04315
C         11.91572        35.24679         1.28882
C         13.24249        37.37321         1.22914
C         11.92576        38.11090         1.14337
C         13.22975        40.27551         0.55767
C         11.89365        39.66048         0.96850
C         13.23722        41.53830         0.03184
C         11.99902        42.26928        -0.26352
C         13.20865        44.45300        -0.40336
C         12.03435        43.70129        -0.39877
C         13.23943        45.87734        -0.34359
C         15.82637        14.91655         0.74678
C         15.76920        16.30534         0.46102
C         14.53396        16.94595         0.22152
C         15.72566        18.92151        -0.67537
C         14.46338        18.28827        -0.22709
C         15.70499        20.41350        -1.00463
C         14.46259        21.14794        -0.76648
C         15.74022        23.25966        -0.96163
C         14.49461        22.55532        -0.76797
C         15.73797        24.64889        -1.08353
C         14.51992        25.39419        -1.01958
C         15.73855        27.56242        -0.99293
C         14.52044        26.81307        -0.98621
C         15.74904        28.91309        -0.63535
C         14.49961        29.59796        -0.34550
C         15.80101        31.52937         0.59346
C         14.49995        30.88730         0.17806
C         15.75158        33.04277         0.57321
C         14.42498        33.74949         0.43517
C         15.73050        35.90314         1.14250
C         14.41457        35.20578         0.87369
C         15.66989        37.39612         0.88288
C         14.51004        38.09244         0.96558
C         15.77790        40.22350         0.60887
C         14.48995        39.60920         1.10222
C         15.77687        41.59569         0.06146
C         14.50132        42.23925        -0.32014
C         15.61388        44.48565         0.21776
C         14.53002        43.74394        -0.62549
C         15.76228        45.91796        -0.36383
C         14.42759        46.63937        -0.31889
C         15.64798        48.81345        -0.19173
C         14.44841        48.04837        -0.24821
C         15.64314        50.20613        -0.07962
C         18.30213        10.70412         1.39850
C         18.26940        12.09283         1.29358
C         17.07429        12.81978         1.03292
C         18.26494        15.01977         1.21116
C         17.03012        14.22168         0.97950
C         18.24767        16.49046         0.89073
C         16.99802        17.07063         0.34834
C         18.24519        19.01812        -0.51138
C         17.00999        18.31930        -0.25519
C         18.22435        20.32889        -1.29561
C         16.98067        21.14325        -1.04053
C         18.25684        23.25330        -1.09684
C         16.99494        22.52643        -1.04586
C         18.28713        24.66678        -1.21741
C         16.99545        25.35356        -1.40801
C         18.27943        27.56163        -1.26636
C         16.98672        26.87034        -1.37672
C         18.20914        29.03733        -1.16549
C         16.98574        29.66016        -0.58930
C         18.23409        31.73856        -0.13370
C         17.00855        30.96599        -0.13562
C         18.21645        33.10449         0.21794
C         16.94284        33.78285         0.47713
C         18.13031        35.92200         0.04878
C         16.92258        35.19106         0.56118
C         18.14980        37.41670         0.31974
C         16.99741        38.09634         1.06626
C         18.23895        40.23877         0.62160
C         16.96084        39.55076         0.66948
C         18.29804        41.67677         0.19491
C         16.99329        42.41623         0.23539
C         18.19298        44.56334         0.37205
C         16.95698        43.77467         0.27354
C         18.16522        45.93654         0.37061
C         16.86391        46.69070         0.39924
C         18.18103        48.85503         0.15886
C         16.97420        48.07515        -0.33664
C         18.08970        50.23219         0.26468
C         16.84917        50.96978         0.09148
C         18.03522        53.16986         0.34100
C         16.86386        52.37553         0.06240
C         18.07107        54.54599         0.40142
C         20.69630         6.38364         1.99720
C         20.70379         7.78551         1.80514
C         19.50392         8.53764         1.69714
C         20.77623        10.60762         1.51621
C         19.51862         9.94368         1.55711
C         20.79987        12.07694         1.60354
C         19.52064        12.85607         1.52032
C         20.74739        14.96124         0.90606
C         19.57203        14.31558         1.20515
C         20.78329        16.35568         0.45813
C         19.56609        17.24884         0.71820
C         20.68785        19.03779        -0.66180
C         19.46286        18.42020        -0.23362
C         20.70379        20.37222        -1.02899
C         19.48377        21.12381        -1.07359
C         20.75251        23.24901        -0.72317
C         19.47434        22.51337        -1.03800
C         20.75237        24.72779        -1.04356
C         19.50019        25.41479        -1.24244
C         20.77551        27.59391        -1.48634
C         19.47603        26.86540        -1.34295
C         20.84748        29.14216        -1.45113
C         19.49898        29.80878        -1.13927
C         20.69672        31.76016        -0.19176
C         19.47800        31.12185        -0.47309
C         20.68752        33.13337         0.17666
C         19.44602        33.83750         0.26152
C         20.67262        35.97102         0.45514
C         19.44989        35.24914         0.35892
C         20.71582        37.39949         0.55840
C         19.44923        38.13393         0.48517
C         20.64983        40.19347         1.42704
C         19.41346        39.56373         0.83418
C         20.63381        41.71212         1.31408
C         19.39888        42.43968         0.86562
C         20.65886        44.53821         0.76938
C         19.47132        43.87278         0.54789
C         20.65585        46.03996         0.80921
C         19.46430        46.65875         0.06083
C         20.63638        48.80524         0.50188
C         19.42922        48.14819         0.29978
C         20.64292        50.27096         0.41093
C         19.34023        51.00378         0.32504
C         20.55231        53.19440         0.45877
C         19.27615        52.44434         0.83624
C         20.57466        54.62613         0.71271
C         19.25504        55.26108         1.05699
C         20.53825        57.44651         0.80642
C         19.32370        56.74877         0.89760
C         20.55466        58.86680         0.74765
C         23.09676         3.51719         2.25471
C         21.89968         4.23159         2.23691
C         23.15714         6.31126         1.89298
C         21.90103         5.64188         2.05061
C         23.19211         7.72466         1.71774
C         21.96932         8.45804         1.68698
C         23.24690        10.52203         1.29704
C         21.99378         9.86960         1.51397
C         23.19802        11.93246         0.75644
C         22.10594        12.82622         1.39039
C         23.28860        14.82937         0.55795
C         21.94710        14.10365         0.52794
C         23.26447        16.27799         0.13571
C         21.93118        16.91439        -0.04827
C         23.23038        18.94873        -0.66202
C         21.91079        18.18183        -0.88297
C         23.25013        20.37355        -1.16379
C         21.97246        21.05776        -1.36244
C         23.26169        23.24840        -1.08591
C         21.97763        22.56982        -1.30131
C         23.23950        24.65394        -0.85526
C         21.97630        25.37692        -0.95962
C         23.24584        27.55915        -0.72586
C         22.05476        26.83282        -1.21093
C         23.21887        28.92694        -0.47656
C         22.00161        29.69034        -0.63037
C         23.15623        31.71062         0.14761
C         21.95072        31.02696        -0.24336
C         23.14526        33.10796         0.33296
C         21.91426        33.83853         0.32872
C         23.14611        35.97161         0.56663
C         21.90973        35.24821         0.47885
C         23.14200        37.37941         0.74201
C         21.92712        38.10199         0.77253
C         23.12090        40.25674         1.14019
C         21.95591        39.54972         1.01513
C         23.16582        41.72539         1.53981
C         21.88894        42.45915         1.21608
C         23.14130        44.57231         1.47514
C         21.87630        43.83130         1.08317
C         23.19505        46.00699         0.99020
C         21.98228        46.65145         0.34497
C         23.11078        48.84523         0.68133
C         21.92516        48.14771         0.57642
C         23.16155        50.29051         0.74118
C         21.84239        51.00994         0.95183
C         23.09537        53.21756         0.70278
C         21.86231        52.45671         0.50224
C         23.05286        54.59675         0.67053
C         21.78536        55.31350         0.70670
C         23.04127        57.44825         0.61651
C         21.80985        56.74627         0.74795
C         23.00314        58.86807         0.48017
C         21.75875        59.57796         0.57149
C         22.95404        61.68698         0.22862
C         21.76712        60.99700         0.46104
C         24.32258         4.16063         2.07818
C         25.60932         6.23695         1.66935
C         24.38045         5.56769         1.88820
C         25.67793         7.63818         1.47545
C         24.44069         8.39318         1.53478
C         25.72383        10.50021         1.04907
C         24.43865         9.78621         1.26674
C         25.67372        11.76070         0.21272
C         24.57314        12.63722         0.84053
C         25.66549        14.67280        -0.13892
C         24.52290        14.05459         0.30491
C         25.65617        16.07863        -0.51795
C         24.49322        16.80761        -0.48897
C         25.72842        18.93841        -0.95384
C         24.44840        18.16052        -1.16763
C         25.70682        20.35425        -0.98221
C         24.44582        21.07321        -1.13441
C         25.70458        23.23236        -0.96262
C         24.46721        22.52893        -1.11471
C         25.69654        24.64652        -0.75406
C         24.45318        25.33671        -0.67263
C         25.71357        27.48485        -0.23341
C         24.39969        26.75427        -0.17237
C         25.69143        28.87145         0.03732
C         24.42240        29.59452         0.00828
C         25.57979        31.68914         0.69641
C         24.37291        30.96161         0.26834
C         25.58690        33.14674         0.55135
C         24.38707        33.83859         0.46005
C         25.62357        35.99246         0.36640
C         24.37983        35.27314         0.51582
C         25.64645        37.42636         0.42341
C         24.42941        38.07695         0.90409
C         25.66242        40.33303         0.71487
C         24.43864        39.58364         1.09771
C         25.65382        41.74280         0.76882
C         24.41011        42.45051         1.04159
C         25.70378        44.53356         1.36108
C         24.40743        43.81407         1.11295
C         25.64458        46.00124         1.10203
C         24.38930        46.68189         0.92230
C         25.58974        48.86755         1.01757
C         24.41590        48.12447         0.42175
C         25.65442        50.38357         1.17534
C         24.32986        51.00336         0.78650
C         25.61816        53.18677         0.68770
C         24.34436        52.45059         0.36170
C         25.48032        54.57335         0.93480
C         24.29901        55.33803         0.73288
C         25.51798        57.47910         0.20215
C         24.31330        56.74924         0.58113
C         25.41229        58.87106         0.01407
C         24.20713        59.58864         0.20949
C         24.16191        61.00149         0.08642
C         26.90479         8.25507         1.13724
C         28.18610        10.36170         0.35111
C         27.06050         9.68804         0.98083
C         28.19190        11.77022         0.11727
C         26.97707        12.49501         0.13137
C         28.20352        14.58622        -0.66283
C         26.89647        13.86467        -0.36986
C         28.19494        16.05316        -0.71037
C         26.90151        16.72170        -1.12665
C         28.15495        18.91668        -0.81126
C         26.92723        18.21946        -0.90452
C         28.14020        20.33002        -0.87064
C         26.93680        21.06422        -0.97831
C         28.15381        23.24743        -0.99799
C         26.94759        22.52259        -1.00291
C         28.16323        24.65765        -0.75550
C         26.94051        25.35387        -0.60100
C         28.17264        27.47137        -0.12194
C         26.93844        26.78139        -0.33123
C         28.15950        28.85655         0.20483
C         26.92122        29.53484         0.30647
C         28.13169        31.73160         0.54486
C         26.89604        30.94352         0.76276
C         28.07480        33.06771         0.28918
C         26.88210        33.88567         0.71554
C         27.91542        36.03101        -0.53386
C         26.81773        35.29436         0.19169
C         28.04404        37.48946        -0.10653
C         26.84810        38.17337         0.26195
C         28.03043        40.35175         0.04002
C         26.84537        39.61694         0.37878
C         27.99924        41.78408         0.04908
C         26.85838        42.47966         0.48713
C         28.06050        44.68386         0.52529
C         26.91879        43.91371         0.72555
C         28.12020        46.10989         0.80884
C         26.84497        46.71303         1.11585
C         28.48699        49.19029         1.03112
C         26.64983        48.12142         1.39441
C         28.21872        50.44154         0.49745
C         26.81517        51.02936         0.33241
C         28.03004        53.24732        -0.03845
C         26.84316        52.55297         0.44747
C         28.05205        54.65171        -0.32468
C         27.17904        55.59919         0.24428
C         26.75499        56.85977        -0.20258
C         29.42052        12.48636        -0.09569
C         30.63770        14.62880        -0.23273
C         29.45214        13.86448        -0.33382
C         30.63443        16.03622        -0.33727
C         29.38051        16.75389        -0.56691
C         30.62859        18.88493        -0.59039
C         29.41169        18.19681        -0.68088
C         30.67602        20.32029        -0.71414
C         29.42125        21.02776        -1.07055
C         30.76184        23.24151        -1.18637
C         29.41922        22.51936        -1.24666
C         30.65475        24.67547        -0.72171
C         29.42408        25.35991        -0.59773
C         30.65938        27.38949         0.01206
C         29.42837        26.74147        -0.21223
C         30.75227        28.74346         0.69046
C         29.35730        29.46748         0.92108
C         30.59432        31.72160         0.15079
C         29.45227        31.05203         0.87462
C         30.54796        33.05320        -0.14263
C         29.26315        33.77787        -0.22817
C         30.48581        36.01128        -0.81065
C         29.21464        35.22640        -0.61734
C         30.49824        37.50610        -0.67942
C         29.23043        38.21711        -0.32344
C         30.47795        40.35675        -0.56136
C         29.22138        39.62877        -0.28203
C         30.47457        41.85550        -0.55956
C         29.17302        42.57594        -0.40729
C         30.51954        44.72839        -0.09950
C         29.15711        44.10608        -0.33526
C         30.53076        46.12588         0.10325
C         29.34441        46.85390         0.52490
C         30.57160        48.96833        -0.12882
C         29.46918        48.29055         0.51919
C         30.47726        50.35858        -0.42986
C         29.28386        51.08591        -0.22191
C         29.13538        52.47495        -0.49731
C         31.83119        16.76720        -0.20117
C         33.04958        18.90918        -0.11625
C         31.86101        18.17808        -0.30570
C         33.07192        20.32695        -0.16769
C         31.83807        21.02312        -0.46900
C         33.12485        23.20895        -0.41496
C         31.78127        22.52198        -0.27546
C         33.12978        24.57626        -0.59053
C         31.88154        25.33168        -0.54855
C         33.13305        27.44157        -0.23587
C         31.89654        26.72530        -0.24375
C         33.10458        28.85339        -0.13254
C         31.90367        29.52706         0.10283
C         33.08358        31.72252        -0.47347
C         31.82931        30.96848        -0.13753
C         33.11128        33.17788        -0.19067
C         31.79079        33.86160        -0.21595
C         33.08220        36.03954        -0.47682
C         31.79337        35.27884        -0.68631
C         33.00247        37.51188        -0.30950
C         31.79942        38.16688        -0.37254
C         32.99911        40.43278        -0.08160
C         31.79154        39.64291        -0.47314
C         32.97189        41.89149        -0.33743
C         31.76119        42.58169        -0.41581
C         32.99258        44.70844        -0.30982
C         31.73024        44.01115        -0.30547
C         32.97327        46.11516        -0.31828
C         31.76900        46.83392        -0.15360
C         31.74956        48.23323        -0.35518
C         34.26045        21.05294         0.04027
C         35.55798        23.14874        -0.00368
C         34.34536        22.47078        -0.14817
C         35.70518        24.54629        -0.40361
C         34.40833        25.28952        -0.76102
C         35.68185        27.42693        -0.29232
C         34.39653        26.80958        -0.79349
C         35.70226        28.89078        -0.18846
C         34.39851        29.60020        -0.17958
C         35.67914        31.81267        -0.51969
C         34.40162        31.03312        -0.58353
C         35.64333        33.26334        -0.23571
C         34.38490        33.93650        -0.25395
C         35.44614        36.03861         0.45851
C         34.29414        35.30185        -0.03775
C         35.27850        37.48963         0.53917
C         34.23399        38.21437         0.04606
C         35.57046        40.45767        -0.15155
C         34.30034        39.70856         0.14945
C         35.46728        41.82673        -0.35037
C         34.23197        42.58166        -0.32409
C         34.21504        43.97873        -0.37040
C         36.90737        25.33331        -0.08382
C         38.12315        27.52974         0.09077
C         36.90356        26.73812        -0.12955
C         38.18776        28.89205        -0.10653
C         36.96693        29.60756        -0.64604
C         38.10954        31.79948        -0.15277
C         36.93999        31.08651        -0.32291
C         38.08947        33.24732        -0.09324
C         36.85100        33.95663        -0.06434
C         38.10335        36.18125         0.06510
C         36.85521        35.39142         0.34066
C         38.16998        37.58127        -0.17462
C         37.16856        38.54718         0.15305
C         36.84105        39.78630        -0.39388
C         39.37935        29.68632         0.06364
C         40.57121        31.87337         0.05858
C         39.37101        31.07499        -0.01833
C         40.54195        33.24141         0.00306
C         39.30397        33.98594        -0.05015
C         39.27631        35.40029        -0.10817
O         26.58135        10.50056         2.15481
O         21.85599        21.89655        -2.57281
O         20.13881        50.75580        -0.87172
O         26.16255        31.22606         1.99710
O         35.05267        31.38241        -1.84587
O         36.16795        35.51920         1.62099
O         27.41356        13.98929        -1.77736
O         17.24383        47.80416        -1.68199
O         19.20134        52.43694         2.24799
O         18.09479        16.02002         2.28240
O         17.23873        38.00759         2.46562
O         24.64205        38.69435         2.23581
O         26.58122        55.21548         1.48186
O         36.30759        38.14717         1.19928
O         33.49049        40.18199         1.28456
O         12.03348        30.93945        -1.29319
O         20.12407        12.54573         2.83835
O         21.59486        27.11160        -2.59183
O         12.53010        37.80399         2.43785
O         19.63860        42.22544         2.29033
O         15.63990        19.36496        -2.07022
O         35.15094        29.40742         1.08495
O         29.66848        42.22751        -1.75012
O         18.66671        29.77233        -2.36117
O         15.27868        41.52148        -1.36278
O         27.69354        48.74296         2.09325
O         28.93750        29.12817         2.23649
O         32.22318        31.30345        -1.56509
O         31.22373        39.96875        -1.78386
O         23.44764        15.86863         1.55110
O         12.78578        33.29256         2.32679
O          6.92234        33.49929         0.77471
O         21.24287        52.82221        -0.77930
O         29.39538        21.64632        -2.43017
O         30.43815        36.85442        -1.99673
O         35.23846        24.75837        -1.82642
O         18.70867        38.06817        -0.85528
O         23.20703        41.87653         2.95301
O          9.97537        34.82438        -1.33593
O         10.57795        31.90883         2.05722
O         29.06521        34.20024        -1.66058
O         32.66784        35.53874        -1.81306
O         32.47566        33.61158         1.07752
O         16.88371        26.12785        -2.64747
O         20.48743        46.39813         2.20702
H         21.15687        45.90248         2.73132
O         16.18319        45.85992        -1.72134
H         17.09374        45.49538        -1.76850
O         27.06876        34.02966         2.17971
H         26.96352        33.12554         2.56360
O         20.93850        23.13935         0.72857
H         20.19629        23.60409         1.16863
O         11.61212        40.18691         2.29961
H         12.37527        39.90729         2.86401
O         26.47634        50.67856        -1.04330
H         27.00777        51.24318        -1.64409
O         24.58219        48.06260        -1.03432
H         24.92603        48.93693        -1.32842
O         15.99305        35.74565         2.57657
H         16.54230        36.55771         2.84161
O         22.53785        13.27295         2.68842
H         21.72633        13.33796         3.25177
O         14.80347        43.89097        -2.02487
H         15.22341        43.05030        -2.32994
O         11.60455        35.48790         2.67967
H         12.24648        34.97988         3.22274
O         20.53781        39.85156         2.83762
H         19.97753        40.54443         3.25723
O         28.78268        44.57849        -1.67070
H         29.18888        43.94421        -2.30941
O         19.85263        17.87791         1.99988
H         19.50051        17.27097         2.69323
O         23.35286        19.03588         0.78152
H         24.17311        19.52665         0.99916
O         21.66642        13.78226        -0.85637
H         21.48141        14.62107        -1.33013
O          8.77206        30.24544         1.51117
H          8.98812        30.89034         2.22606
O         22.81516        11.71904        -0.61688
H         23.58595        11.32408        -1.09348
O         14.45212        39.85602         2.54807
H         15.21379        39.36557         2.93750
O         22.16910        46.40341        -1.06771
H         22.94626        46.93456        -1.36435
O         16.46620        46.89576         1.76627
H         17.26888        47.04431         2.31067
O         24.36109        17.94725        -2.60505
H         25.18896        17.46556        -2.87425
O         25.00523        12.74985         2.20907
H         24.30197        13.21948         2.72082
O         18.68225        41.63332        -1.22140
H         17.99507        41.12112        -1.69988
O         21.67826        51.01011         2.39437
H         22.46939        51.41619         2.80603
O         19.06951        55.04725         2.49830
H         19.07701        54.03485         2.63381
O         23.12160        44.58039         2.94872
H         23.07795        43.59495         3.19599
O         24.32908        52.42394        -1.11754
H         23.40177        52.26943        -1.40723
O         11.89240        22.77370         1.19473
H         12.67363        22.33132         1.59087
O         16.00360        31.17022         2.01536
H         15.10372        31.06808         2.41915
O         13.24587        30.85031         2.16972
H         12.69019        31.45143         2.72946
O         21.19267        29.58067        -2.78781
H         20.38560        29.47327        -3.34103
O          8.95567        34.37936         2.04186
H          7.96929        34.36568         2.05805
O         34.36608        27.19045        -2.21258
H         34.86811        26.49136        -2.69610
O         27.42154        36.15598        -1.91048
H         27.83770        35.42848        -2.43081
O         17.97002        35.75140        -1.40798
H         18.39424        36.54992        -1.81318
O         19.60398        46.48187        -1.36835
H         18.86154        47.01237        -1.77840
O         31.31505        22.71881         1.09410
H         31.97306        22.31628         1.69908
O         24.08850        26.62412         1.27522
H         24.93302        26.46145         1.74803
O         31.25702        28.45670         2.02761
H         30.43746        28.53775         2.60973
O         25.35254        11.36187        -1.15440
H         25.73663        12.02671        -1.76674
O         29.67912        31.45186         2.24848
H         29.33377        30.67371         2.78234
O          9.31551        38.57200         2.16320
H         10.10486        39.11836         2.41471
O         15.08659        44.56473         1.55113
H         15.57401        45.27713         2.03314
O         31.31560        23.29251        -2.51598
H         30.86876        22.58642        -3.04151
O         25.88509        44.42260         2.82244
H         24.98642        44.55725         3.22324
O         14.16587        33.75244        -1.00984
H         14.93907        34.14933        -1.46577
O         26.77357        16.53367        -2.58293
H         26.93500        15.56794        -2.73794
O         10.96031        27.81993        -2.88008
H         10.23475        28.41726        -3.15928
O         18.21029        19.96952        -2.71418
H         17.31828        19.58260        -2.89553
O         21.76868        17.72373        -2.25436
H         22.63617        17.81332        -2.72388
O         37.03493        29.50367        -2.09388
H         36.32381        30.08771        -2.45725
O         25.86044        50.72648         2.56340
H         26.60277        50.16740         2.89220
H          5.46870        31.40420        -2.27584
H          5.55028        33.86652        -2.18084
H          7.35146        26.96124        -1.43903
H          6.25878        29.24701        -1.64885
H          6.94679        35.72661        -1.87468
H          7.27301        37.92528         1.04235
H          9.83746        22.73265        -0.88823
H          8.60923        24.81350        -1.26989
H          8.74180        39.86139        -0.55970
H          9.89477        42.02432        -0.68635
H         12.32384        18.48914        -0.09675
H         11.09651        20.56454        -0.29350
H         11.06628        44.22858        -0.40986
H         12.27741        46.41345        -0.28250
H         14.89016        14.33992         0.69884
H         13.60001        16.39433         0.40495
H         13.48538        48.58484        -0.20218
H         14.68114        50.74459        -0.10741
H         17.35761        10.14588         1.31131
H         16.14212        12.25687         0.87326
H         15.91628        52.90275        -0.13787
H         17.16926        55.13720         0.16992
H         19.73538         5.85706         2.09671
H         18.53902         8.01130         1.74563
H         18.39256        57.32785         0.99779
H         19.60483        59.41815         0.80834
H         23.07439         2.42804         2.40105
H         20.94200         3.70694         2.36434
H         22.93789        62.78226         0.14058
H         20.81843        61.54492         0.55155
H         25.25555         3.57903         2.08100
H         26.53865         5.64852         1.64328
H         26.31137        59.43150        -0.28419
H         25.08995        61.55281        -0.12111
H         27.74995         7.61016         0.85272
H         29.07584         9.77224         0.08600
H         28.76498        54.99446        -1.08991
H         27.37522        57.40927        -0.92682
H         30.37014        11.95873         0.07831
H         31.58857        14.11328        -0.03109
H         31.34733        50.86013        -0.87810
H         29.97148        53.00529        -0.97766
H         32.76775        16.22557        -0.00158
H         33.98300        18.36804         0.09916
H         33.91233        46.67080        -0.45826
H         32.65637        48.74196        -0.71398
H         35.18458        20.50004         0.26594
H         36.43786        22.61211         0.38189
H         36.39058        42.39729        -0.53650
H         35.16302        44.53651        -0.39560
H         37.82799        24.79632         0.18828
H         39.02962        26.98446         0.39817
H         39.08430        37.94396        -0.67241
H         37.55536        40.28798        -1.06515
H         40.32899        29.16941         0.27441
H         41.53788        31.35360         0.13613
H         41.48544        33.80632         0.03668
H         40.23306        35.93115        -0.23156
