         236
 CSIRO Nanostructure Databank - Neutral Graphene Oxide Data Set
C        -11.18224         0.92796         0.05057
C         -9.95841         1.73292         0.00399
C         -8.65362         0.92694         0.02381
C         -7.45052         1.57822        -0.51156
C         -6.18280         0.87345        -0.24645
C         -4.89041         1.56687        -0.54534
C         -3.64771         0.77783        -0.69709
C         -2.41898         1.53825        -0.85866
C         -1.19301         0.74691        -0.51854
C          0.24065         1.58723        -2.18898
C          1.42370         0.77687        -1.85596
C          2.61276         1.49819        -1.32045
C          3.71684         0.76779        -0.95012
C          4.85969         1.38709        -0.16408
C          6.19915         0.68689        -0.37880
C          7.39861         1.41291         0.10623
C          8.71377         0.71253         0.07781
C          9.93330         1.48363         0.62624
C         10.99361         0.63536         1.20125
C         -9.86954         3.10310        -0.54613
C         -8.69526         3.67116        -0.95499
C         -7.46770         2.86202        -1.01412
C         -6.21117         3.36767        -1.55483
C         -4.97678         2.85104        -1.26755
C         -3.71320         3.60385        -1.45173
C         -2.44083         2.87303        -1.21634
C         -1.22350         3.69327        -1.52712
C          0.10710         3.00367        -1.88778
C          1.38770         3.75475        -1.62864
C          2.41402         2.94237        -0.83276
C          3.71245         3.70787        -0.58368
C          4.95258         2.93307        -0.26197
C          6.29952         3.55624        -0.64339
C          7.39681         2.89484         0.18686
C          8.63422         3.61284         0.61075
C          9.74709         2.87894         1.02569
C         -8.67953         5.17651        -1.27789
C         -7.41805         5.86366        -0.76185
C         -6.22438         5.52378        -1.31093
C         -4.92213         5.88005        -0.76632
C         -3.69091         5.11266        -1.09879
C         -2.42201         5.50928        -0.32651
C         -1.15081         5.05704        -1.00073
C          0.01672         5.84804        -1.01756
C          1.32505         5.24942        -1.46278
C          2.63357         6.02508        -1.22925
C          3.81762         5.15522        -0.86547
C          4.99725         5.81885        -0.52903
C          6.38520         5.14010        -0.64259
C          7.34103         5.71731         0.41828
C          8.47877         4.98744         0.86468
C         -7.42035         6.88108         0.36604
C         -6.16698         7.77402         0.25656
C         -4.88327         6.97139         0.07545
C         -3.62275         7.54342         0.49431
C         -2.41021         6.94578         0.10128
C         -1.17845         7.63506         0.22950
C          0.02457         7.10565        -0.33932
C          1.25287         8.00042        -0.35522
C          2.53533         7.21369        -0.30344
C          3.71540         7.81203         0.11025
C          4.97779         7.19069        -0.20532
C          6.27416         7.94981        -0.05113
C          7.21775         7.05169         0.72231
C         -6.06114         8.77850         1.37508
C         -4.86870         9.29288         1.74320
C         -3.61426         8.77685         1.21556
C         -2.39183         9.40751         1.45532
C         -1.18704         8.89121         0.93390
C          0.04852         9.55263         1.20783
C          1.24014         9.08462         0.70218
C          2.47914         9.69041         1.07929
C          3.69204         9.11450         0.76432
C          4.94753         9.77785         1.05133
C          6.13099         9.27354         0.64710
C        -11.12517        -0.40257         0.35534
C         -9.89236        -1.16218         0.33328
C         -8.71473        -0.53581         0.01929
C         -7.53494        -1.27733        -0.56611
C         -6.20583        -0.62111        -0.17308
C         -4.91999        -1.34879        -0.42219
C         -3.64787        -0.60357        -0.63307
C         -2.42706        -1.37079        -0.83793
C         -1.18692        -0.68963        -0.93988
C          0.00295        -1.39990        -1.23377
C          1.30662        -0.73604        -1.56358
C          2.55601        -1.42471        -1.15936
C          3.73426        -0.67780        -1.04612
C          5.02772        -1.37998        -0.97611
C          6.25562        -0.65200        -0.58388
C          7.55802        -1.44322        -0.59805
C          8.70202        -0.74084         0.09625
C          9.82245        -1.44618         0.54373
C         10.95107        -0.71688         1.11237
C         -9.95029        -2.65954         0.53356
C         -8.62658        -3.37894         0.32330
C         -7.51990        -2.74423        -0.22118
C         -6.32755        -3.50549        -0.63188
C         -4.98153        -2.78531        -0.84920
C         -3.71147        -3.51897        -0.81068
C         -2.46113        -2.79579        -0.90119
C         -1.23629        -3.50616        -1.04723
C         -0.02604        -2.81756        -1.21765
C          1.25386        -3.59812        -1.44121
C          2.52447        -2.85124        -1.01901
C          3.70220        -3.55606        -0.72568
C          5.01116        -2.88226        -0.79857
C          6.21765        -3.57204        -0.28187
C          7.41739        -2.87779        -0.13083
C          8.59572        -3.57758         0.29935
C          9.78894        -2.86430         0.58160
C         -8.57667        -4.75956         0.66208
C         -7.42205        -5.53603         0.47265
C         -6.29422        -4.96028        -0.29294
C         -4.92464        -5.63006        -0.12003
C         -3.68248        -4.88453        -0.45475
C         -2.45538        -5.55556        -0.36108
C         -1.28548        -5.02472        -1.16016
C          0.02232        -5.70665        -0.79008
C          1.17783        -5.00635        -0.86111
C          2.47576        -5.71044        -0.72847
C          3.72077        -4.96557        -0.49972
C          4.90780        -5.66906        -0.21322
C          6.15159        -4.97594        -0.05355
C          7.34727        -5.69644         0.26822
C          8.53760        -4.98723         0.46185
C         -7.29643        -6.84511         0.98711
C         -6.03466        -7.46882         1.14501
C         -4.86014        -6.79379         0.75898
C         -3.57129        -7.19878         1.30319
C         -2.30149        -6.58559         0.65257
C         -1.01085        -7.32983         0.76861
C         -0.09898        -7.21667        -0.47248
C          1.21543        -7.98463        -0.24009
C          2.46740        -7.16276        -0.38185
C          3.70295        -7.79897         0.06658
C          4.88998        -7.10493         0.00862
C          6.14057        -7.83398         0.16151
C          7.31766        -7.14096         0.30825
C         -5.90115        -8.69507         1.91679
C         -4.69088        -9.18829         2.29791
C         -3.44918        -8.50788         1.97920
C         -2.21952        -9.03444         2.27043
C         -0.95270        -8.49896         1.72942
C          0.17090        -9.45276         1.55838
C          1.22137        -9.05934         0.81893
C          2.24106        -9.81704         0.01964
C          3.63235        -9.26177         0.42360
C          4.89956        -9.96138        -0.00123
C          6.07276        -9.28754         0.01272
O          4.22245         3.53137         0.82986
O         -0.32002         1.18842         0.23146
O         -3.57844         4.64828        -2.45831
O          1.54674        -0.22350        -2.91820
O         -2.55355         4.71503         0.91211
H         -1.84896         4.99880         1.53293
O          6.86988         5.56504        -1.87156
O          2.93422         6.68003        -2.51424
H          2.81257         5.99890        -3.21656
O         -7.65761        -1.12536        -2.01176
H         -7.07851        -1.81862        -2.42105
O         -0.43498        -7.15533         2.08688
O          1.74818         2.82177         0.44851
H          2.44189         2.57697         1.10704
O         -2.82094        -6.12348         1.94619
O         -6.36157         8.54602        -0.97175
H         -5.60315         9.16095        -1.06127
O         -5.85643        -3.12518        -1.98212
O         -8.80778         5.37478        -2.68922
H         -7.96323         5.08457        -3.10323
O         -5.77775        -5.84411        -1.31173
O          6.87041         8.18404        -1.34831
H          6.96894         7.27719        -1.77363
O          1.58693         4.59562        -2.78650
O         -9.15702         1.57676         1.23054
O          1.63461        -9.14470        -1.17795
O         -5.49427        -1.19850         0.94443
O          4.50347         1.08018         1.21325
H          5.20064         1.50291         1.77268
O          3.60652        -9.38580         1.88670
H          4.46558        -9.06016         2.23014
O         -6.24628         4.53871        -2.33214
O         -5.42812         1.54455         0.82539
O          2.61343        -6.71876        -1.80089
O          6.99632         2.09698         1.37297
O          5.25013        -2.27458        -2.13120
O          9.70488         1.30166        -0.81890
O         -0.76434         3.58652        -2.92541
O        -10.93220        -3.24816        -0.33544
H        -10.65786        -3.08285        -1.26100
O          1.38130        -3.76960        -2.87758
H          2.12878        -4.38152        -3.04809
O         -0.57743         1.12854        -3.11563
H         -1.10572         1.91296        -3.44198
O         -8.58141         7.70552         0.31336
H         -8.46139         8.30465        -0.45563
O          6.51884         3.13352        -1.99757
H          6.80624         3.97450        -2.46929
O          7.95062        -1.53150        -2.00881
H          7.16307        -1.88498        -2.48964
O         -0.81141        -7.84334        -1.56289
H         -0.15663        -8.36087        -2.08324
O          1.25448         8.70390        -1.64798
H          1.78817         8.15741        -2.27750
O         -1.52997        -5.32211        -2.56337
H         -1.46337        -6.30118        -2.65643
H         11.77045        -1.31248         1.54239
H         11.82159         1.12756         1.73362
H         10.53580         3.37264         1.61420
H          9.30634         5.54216         1.33504
H          7.87207         7.50273         1.48608
H          7.05823         9.83941         0.82087
H          4.90409        10.75450         1.55712
H          2.45352        10.62558         1.65975
H          0.04428        10.42071         1.88499
H         -2.36550        10.34362         2.03261
H         -4.81691        10.10501         2.48463
H         -6.99819         9.17959         1.78895
H         -7.43068         6.34519         1.35486
H         -9.57210         5.64519        -0.79552
H        -10.78876         3.71099        -0.55278
H        -12.15161         1.41384        -0.13500
H        -12.05902        -0.97466         0.45806
H        -10.30441        -2.85900         1.58110
H         -9.45971        -5.21914         1.12911
H         -8.17163        -7.30747         1.46771
H         -6.82094        -9.22988         2.19481
H         -4.63242       -10.12891         2.86514
H         -2.16824       -10.01897         2.76181
H          0.14706       -10.43008         2.06115
H          2.18123       -10.92713        -0.03887
H          4.88376       -11.05244        -0.14395
H          7.01806        -9.82429        -0.16158
H          8.26977        -7.68210         0.41656
H          9.45523        -5.53129         0.73123
H         10.67367        -3.41769         0.92892
