         276
 CSIRO Nanostructure Databank - Neutral Graphene Oxide Data Set
C        -11.20087         0.62582        -0.38733
C        -10.09083         1.49437         0.07546
C         -8.80316         0.80546         0.54692
C         -7.46544         1.54844         0.50713
C         -6.20931         0.68290         0.32618
C         -5.03567         1.29531        -0.00316
C         -3.74439         0.59168         0.24659
C         -2.44780         1.34899         0.14071
C         -1.23467         0.87948         1.00262
C          0.04057         1.50274         0.41162
C          1.35795         0.79794         0.49986
C          2.63916         1.58204         0.28005
C          3.85407         1.19522         1.07602
C          5.04665         1.67135         0.65671
C          6.29902         0.91386         0.93110
C          7.55603         1.58738         0.44274
C          8.70371         0.74695        -0.01405
C          9.94977         1.46391        -0.46358
C         11.18490         0.64447        -0.56853
C        -10.03562         2.88265        -0.34543
C         -8.84516         3.65883         0.13130
C         -7.59814         2.80647        -0.38588
C         -6.25730         3.48440        -0.10092
C         -5.08317         2.66830        -0.71958
C         -3.74670         3.44051        -0.78993
C         -2.45212         2.76480        -0.41200
C         -1.17995         3.59198        -0.33781
C          0.06134         2.98032         0.17858
C          1.20460         3.71412         0.20636
C          2.52374         3.09789         0.57852
C          3.75815         3.78382         0.00694
C          5.04240         3.01761         0.00366
C          6.31166         3.77046         0.24496
C          7.49680         2.96838        -0.23400
C          8.81683         3.72128        -0.23696
C          9.97994         2.93749        -0.40131
C         -8.71179         5.09651        -0.29655
C         -7.50898         5.72104        -0.27952
C         -6.23701         4.98128        -0.35003
C         -5.09634         5.64875        -0.68550
C         -3.78540         4.98557        -1.09275
C         -2.63992         5.66675        -0.34761
C         -1.27739         5.09675        -0.41431
C         -0.05023         5.93424        -0.17094
C          1.22186         5.14710        -0.19511
C          2.52996         5.89012        -0.27697
C          3.79315         5.24137         0.05693
C          5.07630         5.93564        -0.32849
C          6.31565         5.25253         0.26275
C          7.65800         5.99157         0.23995
C          8.80581         5.12526        -0.26959
C         -7.47371         7.22784        -0.12097
C         -6.35558         7.93059        -0.89689
C         -5.06400         7.14568        -0.76945
C         -3.84057         7.80534        -0.15876
C         -2.85243         6.82494         0.36595
C         -1.08513         8.21770        -0.64508
C          0.01680         7.29267        -0.24557
C          1.29022         8.06867         0.08586
C          2.51778         7.38202        -0.47461
C          3.80541         8.12302        -0.60813
C          5.01598         7.42302         0.02466
C          6.33782         8.11294        -0.22414
C          7.51056         7.42162        -0.26903
C         -6.20737         9.36669        -0.42808
C         -5.07305         9.95887        -0.00207
C         -3.77607         9.28394         0.10133
C         -2.62962        10.02600         0.18327
C         -1.22386         9.46306         0.27895
C         -0.00469        10.24231        -0.15254
C          1.24257         9.57701        -0.17905
C          2.46173        10.26660        -0.26809
C          3.78606         9.65302        -0.69576
C          5.07429        10.25282        -0.17342
C          6.24622         9.57504        -0.17318
C        -11.12441        -0.72138        -0.44934
C         -9.89619        -1.45800        -0.16701
C         -8.78771        -0.70529         0.50200
C         -7.52797        -1.44405         0.79421
C         -6.23090        -0.69570         0.93590
C         -4.97584        -1.45670         1.27308
C         -3.67505        -0.64518         1.17810
C         -2.44716        -1.43614         0.75030
C         -1.17913        -0.65780         0.89259
C          0.01804        -1.17129         0.41232
C          1.29353        -0.63197         0.98075
C          2.42223        -1.54935         1.42572
C          3.77512        -0.95448         1.47332
C          4.88958        -1.38594         0.84310
C          6.20313        -0.63459         0.97892
C          7.44089        -1.41708         0.63959
C          8.75468        -0.68739         0.43107
C          9.97917        -1.45377         0.05123
C         11.16062        -0.69958        -0.46080
C         -9.73936        -2.74728        -0.57863
C         -8.37605        -3.41660        -0.66544
C         -7.51997        -2.96366         0.57559
C         -6.09289        -3.57351         0.46908
C         -4.94469        -2.96618         1.27812
C         -3.72835        -3.70087         1.09494
C         -2.45262        -2.93249         0.90582
C         -1.14021        -3.67779         1.03026
C         -0.03473        -3.26192         1.99020
C          1.33603        -3.81152         1.62455
C          2.41924        -3.03934         1.33268
C          3.76497        -3.63034         0.98698
C          4.76947        -2.74695         0.17293
C          6.11184        -3.44115        -0.00600
C          7.32527        -2.81516         0.11259
C          8.56766        -3.50288        -0.27273
C          9.79229        -2.88301        -0.27285
C         -8.37541        -4.94383        -0.62529
C         -7.40331        -5.73234        -1.19612
C         -6.12710        -5.02146         0.89997
C         -4.91748        -5.87827         0.77990
C         -3.64747        -5.11208         0.94420
C         -2.44113        -5.77075         0.25940
C         -1.11285        -5.12012         0.64712
C          0.09979        -5.95582         0.99382
C          1.36023        -5.29728         1.49431
C          2.73087        -6.01901         1.50531
C          3.89677        -5.12719         1.01178
C          4.94727        -5.74117         0.11650
C          6.04377        -4.85939        -0.42978
C          7.28507        -5.52104        -0.88304
C          8.46908        -4.87303        -0.76326
C         -7.23491        -7.19873        -0.97444
C         -6.11507        -7.85505        -0.54866
C         -4.95380        -7.28655         0.21504
C         -3.63161        -8.04445         0.16312
C         -2.36454        -7.28932         0.43269
C         -1.06158        -7.98118         0.12438
C          0.20305        -7.13999         0.04829
C          1.42104        -8.01421         0.25903
C          2.67103        -7.41586         0.82590
C          3.98285        -8.08784         0.49890
C          5.17942        -7.23148         0.20237
C          6.45588        -7.83874        -0.40801
C          7.15165        -6.92014        -1.44196
C         -6.01190        -9.28341        -0.84573
C         -4.82741        -9.94372        -0.92481
C         -3.55587        -9.33072        -0.57453
C         -2.36313        -9.88026        -0.96430
C         -1.05003        -9.30830        -0.57928
C          0.22691        -9.66072        -1.35187
C          1.49605        -9.21115        -0.63433
C          2.65952        -9.87842        -0.74973
C          3.91412        -9.55659         0.05974
C          5.13138        -9.97559        -0.73207
C          6.20454        -9.21780        -0.97949
O          4.43217        -4.31061         2.08980
O         -2.56669        -2.27849        -0.45021
O          4.36682         3.25498        -1.25971
O          6.22070         4.48358         1.51575
O         -0.85891        -9.21087         0.86766
O          8.93408         0.88843        -1.45406
O         -8.46885        -1.12765         1.87509
O         -1.01888         4.30091        -1.61748
O         -0.28439        -2.69507         3.03038
O          0.42881        -6.03566         2.38497
O          9.71795        -1.03909         1.45903
O          3.78491         0.28187         2.12164
O         -3.02856        -7.97475         1.50294
O         -4.00634         7.62429        -1.62189
O         -7.10605         2.19296         1.78197
O          3.10961         7.62403        -1.78831
O          4.84347        -5.22811        -1.26077
O          4.96739        -7.78485         1.53457
O          0.56044         0.81655        -0.75962
O         -2.86082         0.42265        -0.90405
O         -1.57271         8.21368        -1.75755
O          1.89272         5.26247        -1.49938
O         -0.68649        -4.12184        -0.30074
O         -5.79069        -0.81239         2.34089
O         -6.14674         3.27988         1.37648
O         -2.92683         2.76732        -1.79457
O          6.99615        -1.25266         2.03216
O          7.25640         1.51967         1.85967
O          1.50809        -0.91349         2.37768
O         -9.75176         1.27311         1.53529
O          1.81198        -8.30532         1.63304
O         -5.22768        -7.07092         1.64368
O         -5.37872         2.37617        -2.10432
H         -4.50716         2.19602        -2.53710
O         -8.21129        -3.53609         1.68853
H         -8.60297        -2.79670         2.21728
O          0.18172        -8.97978        -2.62567
H         -0.59490        -9.30211        -3.12858
O          2.66769         3.26058         2.01819
H          1.92873         2.80380         2.47341
O          1.45157         7.92141         1.54316
H          2.36454         8.19834         1.78548
O         -2.59819        -5.61615        -1.18098
H         -2.11835        -4.78900        -1.42782
O          4.20633        -2.53609        -1.14144
H          4.24316        -3.39537        -1.62316
O          8.04556         6.21946         1.63930
H          7.74181         5.42161         2.13823
O          7.14597         2.76348        -1.62714
H          7.82141         2.15284        -2.01706
O          6.43087        -6.91064        -2.67605
H          5.65933        -6.30617        -2.57075
O         -6.94689        -5.42314         1.80940
H         -6.64958        -6.32829         2.12246
O          5.22857         5.83891        -1.76338
H          4.97752         4.91891        -2.02861
O          7.41001        -7.98310         0.66352
H          6.91486        -8.32098         1.44500
O         -6.73249         7.94635        -2.28837
H         -5.90993         8.08064        -2.80840
O          0.32085        -6.54774        -1.26455
H          0.30443        -7.26842        -1.94464
O         -1.33700         1.43111         2.31627
H         -2.03429         0.91366         2.79562
O         -7.23979         7.48984         1.27194
H         -7.80786         6.88894         1.79828
O         -2.17173         6.98930         1.51941
H         -2.15329         7.92824         1.84334
O          3.02225        -6.27576         2.88121
H          2.27894        -6.81025         3.23837
O          4.72752         7.52799         1.45192
H          5.49256         7.15477         1.94311
O         -3.67627         5.12205        -2.51273
H         -2.76962         4.81976        -2.75068
O         -7.90637         2.51306        -1.73512
H         -7.07076         2.36660        -2.24431
O          2.99872         1.30628        -1.08300
H          2.19236         1.41344        -1.63734
O          3.81842        10.01522        -2.11460
H          3.35188         9.28774        -2.59420
O         -5.65966        -3.45262        -0.90853
H         -4.68080        -3.35898        -0.92860
O         -1.01577         9.18558         1.70168
H         -0.10518         8.80975         1.83078
O         -3.39410        -0.18751         2.52116
H         -4.27116        -0.11862         2.97869
O         -6.63372        -5.32100        -2.22844
H         -6.75213        -4.33955        -2.33191
O          0.14543        -2.01543        -0.60605
H         -0.75469        -2.17303        -0.99462
O         -7.82272        -2.91675        -1.90879
H         -8.54088        -2.90978        -2.57586
O          3.83973       -10.37591         1.24597
H          3.13847        -9.98717         1.81739
O         -8.90018         3.79995         1.56194
H         -9.26330         2.96297         1.94673
H         12.08086        -1.27665        -0.64151
H         12.11696         1.15664        -0.85181
H         10.96283         3.43068        -0.44559
H          9.77660         5.63814        -0.37306
H          8.44973         7.98472        -0.39741
H          7.18119        10.12618         0.01772
H          5.09004        11.34520        -0.03584
H          2.40812        11.36353        -0.36694
H         -0.06564        11.30638        -0.42886
H         -2.74081        11.12044         0.26422
H         -5.09352        11.03113         0.25036
H         -7.12024         9.97803        -0.50389
H         -8.46818         7.66079        -0.42662
H         -9.62851         5.70888        -0.28834
H        -10.59734         3.18645        -1.24034
H        -12.13004         1.12843        -0.69463
H        -11.98564        -1.29921        -0.81781
H        -10.58858        -3.24461        -1.07670
H         -8.95660        -5.38077         0.19955
H         -8.02275        -7.82940        -1.42612
H         -6.93311        -9.79421        -1.16491
H         -4.81284       -10.98332        -1.28436
H         -2.37027       -10.80794        -1.55923
H          0.27529       -10.76839        -1.53859
H          2.69796       -10.79328        -1.36282
H          5.09529       -10.99906        -1.13848
H          7.03101        -9.64298        -1.56999
H          8.16628        -7.34210        -1.64600
H          9.39890        -5.37131        -1.07760
H         10.66992        -3.44882        -0.62303
