         280
 CSIRO Nanostructure Databank - Neutral Graphene Oxide Data Set
C         30.53604        31.61760        -1.02797
C         30.48556        32.88463        -1.04758
C         30.45577        36.06149        -1.05047
C         30.51836        37.31065        -1.18588
C         30.61851        40.51584        -1.44745
C         30.54300        41.75305        -1.54322
C         32.92543        28.71721        -0.61833
C         31.84248        29.36974        -0.78375
C         32.96993        31.52610        -1.02287
C         31.58588        30.72140        -0.99218
C         32.87506        33.04763        -0.80606
C         31.59061        33.77199        -0.94720
C         32.82638        35.96482        -0.94589
C         31.55493        35.16416        -0.94627
C         32.80337        37.43137        -0.48159
C         31.58537        38.21883        -0.99751
C         32.86654        40.31568        -0.70612
C         31.65730        39.58985        -1.09553
C         32.90029        41.83214        -0.87747
C         31.48963        42.60022        -0.70766
C         32.94339        44.52118        -0.90204
C         31.83656        44.01684        -1.10922
C         35.47095        27.35317         0.87575
C         35.27510        28.71547         0.53928
C         34.01000        29.36517         0.15744
C         35.24551        31.66666         0.24930
C         33.97357        30.87152        -0.04146
C         35.35207        32.98154        -0.57125
C         34.04262        33.74125        -0.60053
C         35.28830        36.00170        -0.25162
C         34.11703        35.21746        -0.76122
C         35.29168        37.36459        -0.22066
C         34.12535        38.15243        -0.81222
C         35.26758        40.35684        -0.12360
C         34.05171        39.64032        -0.44979
C         35.28852        41.72759         0.09230
C         34.02754        42.50584        -0.08507
C         35.52448        44.59301        -0.27095
C         34.12890        44.01865        -0.18363
C         35.73362        46.05770        -0.07291
C         37.75777        27.40798         1.79432
C         36.43124        26.81199         1.45549
C         37.69876        28.83704         1.14013
C         36.52834        29.42289         0.64505
C         37.78004        31.63523         0.13724
C         36.52801        30.83226         0.12822
C         37.72823        33.12344         0.10885
C         36.53899        33.76986        -0.03890
C         37.75948        35.99247         0.49994
C         36.46352        35.22854         0.22543
C         37.75246        37.42932         0.37290
C         36.41824        38.13994         0.46550
C         37.69489        40.28896         0.58392
C         36.55523        39.56019        -0.11319
C         37.69241        41.76617         0.62031
C         36.51099        42.43649         0.48157
C         37.80453        44.60729         0.94027
C         36.44286        43.91696         0.82515
C         37.76817        46.11799         1.27419
C         36.76554        46.64846         0.26651
C         39.95505        24.58716         0.35289
C         38.99205        25.28481         0.82092
C         40.07977        27.31623         0.53543
C         38.86384        26.64939         1.11135
C         40.11062        28.78598         0.35271
C         39.04032        29.55682         1.13385
C         40.28765        31.72306         0.33801
C         39.01923        31.03272         0.70435
C         40.29842        33.13853        -0.15934
C         38.98847        33.91553        -0.21275
C         40.23406        35.92473         0.67626
C         39.06530        35.27890         0.42957
C         40.19655        37.37859         1.10098
C         39.07956        38.12240         0.27865
C         40.25356        40.32452         0.82394
C         38.98681        39.55958         0.76399
C         40.22617        41.69454         0.81298
C         38.94021        42.42426         1.17084
C         40.30189        44.63699         0.76573
C         38.96949        43.92292         0.95312
C         40.31578        46.04999         1.32005
C         39.12721        46.75393         1.33555
C         40.38142        48.81422         1.67103
C         39.31943        48.12554         1.70105
C         42.64643        24.54519         0.18607
C         41.33367        25.03678         0.61299
C         42.68131        27.33187         0.44493
C         41.39784        26.58718         0.67308
C         42.70302        28.67887         0.22583
C         41.44008        29.45204         0.09795
C         42.84194        31.64984         0.20278
C         41.53776        30.94274         0.11299
C         42.83552        33.03093         0.34625
C         41.58078        33.82276         0.17662
C         42.84278        35.87688         1.00822
C         41.49366        35.12715         0.95608
C         42.84557        37.39632         1.24433
C         41.51508        38.08097         0.95428
C         42.72882        40.19145         0.57874
C         41.51926        39.56749         1.21825
C         42.70201        41.67783         0.35309
C         41.47736        42.43670         0.83943
C         42.83670        44.43792         1.51653
C         41.51909        43.78705         1.07671
C         42.90394        45.95688         1.44990
C         41.61566        46.67225         1.83390
C         42.98538        48.66750         1.65644
C         41.66154        48.26592         1.66770
C         43.71436        25.16162         0.16282
C         45.22336        27.25828         0.20844
C         43.99560        26.55485         0.70236
C         45.19688        28.64250        -0.40740
C         43.92662        29.43419        -0.22296
C         45.27394        31.63612        -0.17678
C         44.03085        30.90961        -0.06751
C         45.32758        33.01565        -0.00163
C         44.04996        33.81850        -0.06670
C         45.38817        35.94256         0.46943
C         44.11260        35.17929         0.61178
C         45.31638        37.41782         0.57747
C         44.07064        38.08625         0.60831
C         44.94105        40.35443        -0.38488
C         43.88277        39.49617         0.27749
C         45.17060        41.58964         0.36156
C         44.00936        42.23360         1.04783
C         44.77625        44.19192        -0.23522
C         43.96603        43.71090         0.81962
C         44.22764        45.27729        -1.15685
C         44.13726        46.59225         1.64413
C         44.07845        48.02911         1.65809
C         47.67450        27.44999         0.17282
C         46.51246        26.93238         0.42941
C         47.79833        28.68263        -0.41410
C         46.50326        29.39721        -0.64164
C         47.83115        31.65107        -0.37116
C         46.53340        30.93441        -0.55773
C         47.88410        33.00557        -0.06861
C         46.59225        33.80881        -0.28582
C         47.87737        35.93684         0.52405
C         46.55499        35.22795         0.29693
C         47.77507        37.35562        -0.06658
C         46.57654        38.12326         0.39644
C         47.81272        40.28371         0.20275
C         46.83521        39.41922         0.86321
C         47.66368        41.63787         0.01314
C         46.42234        42.40364         0.42698
C         47.13522        44.33396        -1.24072
C         46.04824        43.59117        -0.43101
C         46.36038        45.03759        -2.31401
C         45.21873        45.51359        -2.23977
C         50.35557        28.79288        -0.50170
C         49.03430        29.35882        -0.79424
C         50.38867        31.69501        -0.71514
C         49.07397        30.90594        -0.72991
C         50.34649        32.92903         0.20587
C         49.14931        33.67129         0.23408
C         50.36748        36.04232         0.48456
C         49.15505        35.20095         0.03217
C         50.27532        37.57504         0.33930
C         49.02851        38.10762        -0.34921
C         50.22643        40.39207        -0.14675
C         48.96339        39.61729        -0.56050
C         50.09736        41.77710        -0.81902
C         48.73500        42.39883        -0.69128
C         49.50739        43.95223        -2.24623
C         48.35198        43.53544        -1.57470
C         51.43766        29.39945        -0.72929
C         52.71980        31.56616        -0.15833
C         51.69298        30.77167        -0.52178
C         52.77183        32.71176         0.45136
C         51.58534        33.34201         0.81909
C         52.65323        36.48365         1.07365
C         51.49646        35.58516         1.10839
C         52.65753        37.46606         0.29344
C         51.57860        38.30909        -0.10733
C         52.47307        40.56837        -0.95631
C         51.53580        39.63452        -0.42537
C         52.42257        41.70151        -1.48491
C         51.06314        42.16585        -2.00416
C         50.73262        43.62530        -2.27083
O         36.85370        35.52386         1.61269
O         44.31264        28.83582        -1.53483
O         43.15946        45.81174        -1.00705
O         41.45410        25.73536         1.88165
O         45.55084        40.02171        -1.40937
O         41.41293        30.21335        -1.15713
O         48.96106        30.16505        -1.99266
O         33.44019        30.30043         1.17448
O         39.76558        27.93478        -0.76937
O         33.68649        43.37718         1.03154
O         48.30866        37.44365        -1.42277
O         39.71948        31.83897         1.70500
O         38.08714        39.74383         1.90191
O         49.91942        42.80024         0.18927
O         33.65740        35.65809        -2.09307
O         41.15864        33.61853        -1.23695
O         43.68910        35.18720         2.01998
O         37.32581        30.95955        -1.09980
O         46.43655        30.21387        -1.82943
O         51.59063        34.36645         1.74895
O         46.59518        34.05608        -1.72695
H         45.67335        34.31400        -1.98038
O         32.69864        37.41259         0.95703
H         31.80271        37.10081         1.20501
O         41.53504        46.52699         3.28537
H         41.92491        45.64735         3.52190
O         50.19192        40.57633         1.27458
H         50.41281        41.52151         1.45352
O         31.09507        42.58365         0.61957
H         30.33522        43.18395         0.75724
O         34.30039        38.15423        -2.24629
H         35.22322        38.44095        -2.43028
O         49.18512        35.22887        -1.41048
H         49.77042        34.51204        -1.74123
O         38.75636        34.23994        -1.62257
H         39.64321        34.32990        -2.04808
O         33.50589        31.30041        -2.32531
H         33.28441        32.04922        -2.91660
O         48.76708        39.86763        -1.95544
H         48.22477        39.12251        -2.31084
O         35.79720        44.05724         2.10876
H         36.21024        43.42018         2.72976
O         38.83479        42.28746         2.62534
H         38.71486        41.32021         2.80727
O         42.76730        41.98065        -1.04975
H         43.28503        41.29079        -1.51767
O         39.55782        29.49995         2.49634
H         39.71467        30.43313         2.79079
O         45.33552        45.97452         1.73020
H         45.22554        45.03334         1.98687
O         43.92622        41.84726         2.43479
H         44.80961        42.01825         2.83007
O         48.03941        36.03972         1.95810
H         47.28618        36.54962         2.32333
O         35.62604        32.74100        -1.96166
H         36.43797        32.17907        -2.03574
O         43.05216        37.56293         2.69787
H         43.60833        36.79649         2.98232
O         36.00445        38.24960         1.84771
H         36.16466        37.37171         2.26648
O         46.60685        42.80080         1.85265
H         47.43778        43.32523         1.90212
O         33.29983        42.01152        -2.25758
H         32.59346        41.63840        -2.82929
O         50.52623        32.27804        -2.02293
H         50.20447        31.61134        -2.67384
O         50.05168        38.03081         1.70366
H         50.84657        37.80695         2.23464
O         41.24459        34.67690         2.32458
H         42.11769        34.41705         2.70389
O         44.12093        26.42843         2.11406
H         43.30766        25.97107         2.44162
O         43.86270        34.17731        -1.49616
H         43.48153        33.39503        -1.95360
O         46.13593        39.92744         1.90254
H         46.47782        40.82082         2.14256
O         36.94180        39.37215        -1.51883
H         36.90126        40.24603        -1.96523
O         39.75616        37.45600         2.47722
H         40.39544        36.95111         3.02482
O         36.06732        44.21022        -1.53876
H         35.50107        44.58092        -2.24813
O         41.59805        39.81222         2.66309
H         42.20379        39.12603         3.03676
O         47.59155        45.35546        -0.32627
H         46.86127        45.99067        -0.15887
O         40.40811        44.81565        -0.68810
H         39.67902        45.39869        -0.98970
O         35.19344        32.08655         1.62755
H         34.59502        31.46236         2.10516
O         50.74494        41.41960        -3.13907
H         51.37149        41.62929        -3.86078
O         37.23287        46.26760         2.57406
H         36.41289        45.71550         2.63109
O         42.92722        44.17180         2.95983
H         42.95550        43.18508         3.08216
O         39.53273        38.10804        -1.09725
H         38.78646        38.42918        -1.65629
O         37.92042        27.48882         3.20557
H         38.62295        28.15535         3.39356
