         280
 CSIRO Nanostructure Databank - Neutral Graphene Oxide Data Set
C         30.57100        31.53807         0.96458
C         30.59324        32.77138         0.82226
C         30.52737        35.96576         0.92308
C         30.43244        37.18398         1.12610
C         30.60642        40.05166         0.33615
C         29.66365        40.62461        -0.28711
C         33.21912        28.94080         0.53262
C         32.17884        29.48612         0.91033
C         32.83373        31.59627        -0.06721
C         31.57464        30.69113         0.23521
C         32.84277        32.95647         0.12369
C         31.63315        33.70613         0.53303
C         32.84346        35.86014         0.52342
C         31.59630        35.08054         0.56057
C         32.77901        37.38296         0.56229
C         31.64045        38.03742         1.46043
C         32.88279        40.26467         1.40408
C         31.60657        39.50470         1.07153
C         32.86008        41.78416         1.21514
C         31.84022        42.47204         1.84761
C         32.99213        44.52257         1.42748
C         31.97305        43.93004         1.83565
C         35.79704        27.56136        -1.44352
C         35.45901        28.67904        -0.72329
C         34.08148        29.28471        -0.67118
C         35.35067        31.66926        -0.62162
C         34.06047        30.88849        -0.58997
C         35.36074        33.12233        -0.28252
C         34.01737        33.83207        -0.32289
C         35.30609        35.92682         0.55209
C         34.02741        35.20805         0.33282
C         35.28840        37.40334         0.68896
C         34.10884        38.05399         0.84972
C         35.26529        40.28436         0.31706
C         34.03244        39.54333         0.69232
C         35.22701        41.80892         0.08683
C         34.20143        42.52010         1.00702
C         35.31387        44.75679         0.22226
C         33.98214        44.05791         0.39202
C         35.48753        46.02183        -0.52370
C         37.86686        27.26518         0.08231
C         37.09071        27.13256        -1.20600
C         37.89228        28.81296         0.14542
C         36.58906        29.49600        -0.16103
C         37.86155        31.64179        -0.01927
C         36.68847        30.92327        -0.66956
C         37.84713        33.12065        -0.08473
C         36.53015        33.81641        -0.23753
C         37.79102        36.08069        -0.26307
C         36.57896        35.25658         0.17581
C         37.85052        37.49088         0.30890
C         36.61773        38.09502         0.96649
C         37.82956        40.39288         0.60519
C         36.55656        39.62566         0.73745
C         37.78212        41.83276         0.22846
C         36.58318        42.47939         0.18303
C         37.76894        44.47759        -0.77018
C         36.58285        43.95492         0.01452
C         37.78598        45.89511        -1.31467
C         36.53210        46.56037        -0.91147
C         40.36474        24.54068        -0.58545
C         39.33527        25.21605        -0.54881
C         40.41003        27.33922        -0.65224
C         39.04519        26.64394        -0.69279
C         40.39161        28.85687        -0.70122
C         39.14438        29.54631        -0.15429
C         40.40690        31.66977        -0.16959
C         39.15133        30.91491        -0.13185
C         40.39549        33.13624        -0.26272
C         39.08859        33.87223        -0.52876
C         40.30652        36.08257        -0.29818
C         39.07700        35.29540         0.09927
C         40.31824        37.51534         0.05484
C         39.05912        38.17987         0.32964
C         40.28240        40.33518         0.45223
C         39.10906        39.64393         0.50973
C         40.33190        41.85955         0.48982
C         39.05181        42.54221         0.03915
C         40.30869        44.38120        -1.15826
C         39.06040        43.79287        -0.51747
C         40.32106        45.89775        -1.33388
C         39.08985        46.57195        -1.47331
C         40.34167        48.55481        -2.08541
C         39.27883        47.92586        -1.81108
C         42.95934        24.51419        -0.77976
C         41.63424        25.13419        -1.15303
C         42.87837        27.33844        -0.29210
C         41.61002        26.66896        -0.65868
C         42.82816        28.73235         0.26068
C         41.56999        29.49582         0.00506
C         42.91292        31.64493        -0.30740
C         41.58527        30.98057        -0.03291
C         42.87115        33.13706         0.11994
C         41.56801        33.83554        -0.22177
C         42.85219        36.06242        -0.08832
C         41.59869        35.31798        -0.36162
C         42.78790        37.47679         0.14293
C         41.55446        38.16144         0.22014
C         42.84712        40.32461         0.33141
C         41.57656        39.59191         0.70330
C         42.81847        41.79376         0.24737
C         41.54175        42.35930        -0.33664
C         42.83786        44.40003        -1.12577
C         41.56350        43.86517        -0.49422
C         42.81861        45.90774        -1.29815
C         41.59438        46.55826        -1.58037
C         42.91605        48.40050        -2.39495
C         41.60413        47.95431        -2.07870
C         43.91628        25.29437        -0.64914
C         45.37313        27.20728         0.26167
C         44.08221        26.65895        -0.26649
C         45.42849        28.78166         0.33928
C         44.10522        29.49686         0.72991
C         45.36100        31.75571         0.57389
C         44.10607        30.96125         0.30977
C         45.36244        33.21349         0.13067
C         44.10662        33.88920        -0.38378
C         45.32252        36.09122        -0.18850
C         44.05275        35.36541        -0.07661
C         45.30551        37.56425         0.00345
C         44.05557        38.17647         0.61829
C         45.30399        40.40473         0.37087
C         44.04354        39.67795         0.42162
C         45.38517        41.75331         0.13222
C         44.12816        42.53061         0.12586
C         45.35539        44.20019        -1.27690
C         44.13865        43.96592        -0.37087
C         45.27332        45.65500        -1.75389
C         44.20172        46.61235        -1.32100
C         43.98565        47.76968        -2.28332
C         47.52607        27.55702        -1.00883
C         46.56609        26.90710        -0.60458
C         47.64653        29.04258        -1.17402
C         46.59722        29.59042        -0.16301
C         47.76320        31.75606        -0.06980
C         46.58596        31.07425        -0.02826
C         47.81454        33.17724         0.29303
C         46.54630        33.88760         0.17413
C         47.83031        36.08629         0.41414
C         46.63328        35.35088        -0.05225
C         47.85480        37.46351         0.44650
C         46.61999        38.25545         0.19813
C         47.77494        40.37735         1.09208
C         46.53502        39.64678         0.73130
C         47.75221        41.93456         1.00252
C         46.77219        42.35650        -0.16788
C         47.82383        44.58750        -0.95033
C         46.70230        43.84075        -0.56469
C         47.66017        45.45912        -2.09256
C         46.50970        46.03348        -2.21427
C         50.26729        29.26065        -1.12096
C         48.98978        29.68954        -0.95340
C         50.32427        31.80569        -0.17518
C         49.01536        31.13949        -0.57135
C         50.18594        32.91734         0.89043
C         48.98535        33.81879         0.60251
C         50.27251        36.01576         0.93948
C         48.95050        35.28177         1.06211
C         50.29469        37.42155         0.95044
C         49.04922        38.20124         0.87316
C         50.22377        40.23979         1.69778
C         49.04165        39.57202         1.10974
C         50.12121        41.75510         1.93998
C         49.23025        42.40748         0.81685
C         50.31469        44.46630         1.62193
C         49.43464        43.93959         0.71729
C         51.42998        29.76478        -0.84333
C         52.66568        31.76785         0.30456
C         51.60851        30.98259        -0.24667
C         52.63469        32.84673         0.92137
C         51.48402        33.71120         1.20012
C         52.73442        36.00256         1.02803
C         51.50427        35.21604         1.20868
C         52.62117        37.24802         0.96296
C         51.54525        38.14218         1.08430
C         52.70627        40.40063         1.61062
C         51.57074        39.47809         1.65578
C         52.59781        41.55858         2.10731
C         51.55344        42.49595         2.07582
C         51.33255        43.83334         2.14518
O         41.79647        28.87475         1.31285
O         37.12809        40.28051         1.91884
O         37.79246        32.42295         1.21216
O         51.40374        34.40435         2.45722
O         46.10975        35.70802        -1.38562
O         43.39353        42.45291         1.41257
O         37.53709        44.77098        -2.19135
O         37.02456        29.31489         1.22426
O         40.89909        35.76678        -1.59912
O         45.94701        38.24391        -1.10942
O         38.18445        26.84320        -1.95471
O         49.74173        32.06607        -1.47056
O         50.74605        39.55036         2.87363
O         34.55499        31.44669        -1.85549
O         49.06624        44.62522        -0.39019
O         46.57516        29.06436         1.20907
O         46.87924        39.85302         2.14639
O         36.28481        44.66395         1.28357
O         34.40529        39.70714        -0.72507
O         36.21010        35.32812         1.58908
O         45.57032        31.78347         2.01689
H         45.39078        30.87448         2.36145
O         41.44404        41.72028        -1.65392
H         40.72589        42.19950        -2.15028
O         34.84000        42.64538         2.27023
H         34.26783        43.16668         2.87198
O         32.40032        37.76678        -0.77807
H         33.03314        37.37868        -1.41809
O         42.87614        43.88206        -2.49831
H         42.70313        42.90674        -2.43704
O         33.20006        40.03638         2.79990
H         32.56818        40.55131         3.34433
O         45.53189        26.71191         1.57159
H         46.25848        27.22152         1.99561
O         38.95746        33.97615        -1.97161
H         39.77708        34.43014        -2.29695
O         44.27629        44.80567         0.78179
H         43.85512        44.33396         1.53676
O         34.85777        42.05385        -1.28141
H         34.38556        41.25650        -1.62160
O         33.76875        34.11367        -1.73622
H         33.85375        33.25076        -2.21157
O         47.25200        41.65692        -1.35638
H         46.63454        41.91681        -2.08645
O         44.16970        33.82818        -1.84369
H         44.91709        34.42417        -2.11244
O         42.97124        33.17979         1.56099
H         42.15441        32.80274         1.94974
O         47.21591        42.48420         2.19477
H         46.87436        41.74579         2.74944
O         45.29275        43.27830        -2.40563
H         45.71397        43.72825        -3.16999
O         49.73233        41.88671        -0.41811
H         49.01020        41.90081        -1.09779
O         43.06843        31.46516        -1.74982
H         43.58115        32.23047        -2.11622
O         39.14907        35.16391         1.52783
H         38.24782        35.01848         1.89613
O         37.68731        36.26684        -1.68972
H         37.93861        35.41295        -2.12905
O         47.16531        29.42787        -2.46211
H         47.83900        29.20059        -3.13625
O         36.83599        37.85246         2.37961
H         37.19646        38.68810         2.76624
O         49.89286        32.18353         2.10048
H         49.95834        32.80034         2.86177
O         37.50539        26.67957         1.29700
H         36.99828        27.34731         1.81244
O         31.96869        37.83041         2.81380
H         31.25390        38.17800         3.38415
O         31.03894        30.25643        -0.99998
H         30.22258        29.74205        -0.82885
O         48.65073        35.24245         2.49466
H         49.48355        35.00208         2.96347
O         44.10155        29.46469         2.18273
H         43.15543        29.44833         2.46717
O         41.53343        25.19249        -2.54388
H         41.60939        24.29176        -2.91979
O         33.35003        44.05584        -0.84923
H         32.49501        43.58217        -0.78899
O         37.08154        30.83135        -2.06051
H         36.25463        30.76067        -2.59347
O         44.13583        37.91512         2.04528
H         43.35938        38.36304         2.46096
O         41.66932        39.51293         2.17692
H         41.61399        40.44299         2.50415
O         40.56039        42.23180         1.87570
H         39.70883        42.15880         2.35700
O         33.37221        28.90665        -1.81649
H         32.46027        29.28270        -1.76590
O         49.47811        41.92649         3.18987
H         49.89317        41.30853         3.83034
O         44.52098        47.17837        -0.06065
H         43.77156        47.72164         0.25741
O         30.77971        41.86157         2.40463
H         30.05391        42.49887         2.55571
O         40.22775        43.88423        -2.55402
H         41.08122        44.14776        -2.98432
O         40.48292        29.21016        -2.10150
H         39.68038        28.89193        -2.56644
