         234
 CSIRO Nanostructure Databank - Neutral Graphene Oxide Data Set
C          1.67117         2.32087         2.29079
C          1.60317         3.70461         2.02123
C          2.77191         1.58695         1.90573
C          2.65097         4.37531         1.38816
C          1.34667         6.48134         1.05852
C          1.26568         7.84121         0.64803
C          2.50723         5.75103         0.92435
C          2.28408         8.48065        -0.03050
C          1.16060        10.70156         0.15994
C          1.15430        12.07130         0.18125
C          2.34123         9.93553        -0.15054
C          2.30702        12.82128        -0.18786
C          1.19435        14.98612         0.24120
C          1.26767        16.29843         0.60707
C          2.37146        14.22841        -0.08833
C          2.53546        16.96229         0.69751
C          2.63410        18.24396         1.27711
C          3.88714         2.23148         1.28965
C          3.85187         3.65039         1.06350
C          5.02699         1.49788         0.92305
C          4.99948         4.30151         0.54195
C          3.60226         6.30710         0.10033
C          3.42770         7.68628        -0.50624
C          5.00339         5.81346         0.43279
C          4.65046         8.37196        -1.05741
C          3.50776        10.59773        -0.51688
C          3.45111        12.05744        -0.70255
C          4.75646         9.88495        -0.94412
C          4.75745        12.81880        -0.94192
C          3.63823        14.92113        -0.18696
C          3.70993        16.29749         0.24121
C          4.81923        14.22494        -0.52780
C          4.96200        16.98062         0.28052
C          3.87901        18.81707         1.48880
C          5.05597        18.21690         0.99619
C          6.16858         2.14332         0.40467
C          6.15755         3.57482         0.23250
C          7.34493         1.41099         0.12900
C          7.37111         4.24346        -0.18571
C          6.06382         6.32529        -0.51696
C          5.81676         7.45837        -1.27326
C          7.36162         5.67231        -0.44466
C          7.54743         8.73363        -0.15317
C          6.05063        10.66720        -0.92891
C          6.01930        12.04119        -1.00061
C          7.36401        10.01329        -0.90045
C          7.21503        12.82554        -1.39005
C          6.08638        14.89775        -0.53786
C          6.11718        16.29184        -0.25416
C          7.28188        14.26152        -1.00686
C          7.32084        16.97225        -0.53373
C          6.33575        18.78958         1.42492
C          7.43821        18.77975         0.64140
C          8.54841         2.06651        -0.20031
C          8.54064         3.50189        -0.35515
C          9.75846         1.33552        -0.23947
C          9.78655         4.19545        -0.71440
C          8.58424         6.38436        -0.51906
C          8.65580         7.83402        -0.58220
C          9.82982         5.66856        -0.60847
C          9.82890         8.46612        -0.96062
C          8.51331        10.64962        -1.32099
C          8.48654        12.07317        -1.73318
C          9.78559         9.88227        -1.41514
C          9.78101        12.84409        -1.90016
C          8.50697        14.94568        -1.02977
C          8.55836        16.33179        -0.68602
C          9.73115        14.38511        -1.74459
C          9.80984        17.10479        -0.59216
C          8.87248        19.05443         0.98751
C          9.89096        18.45844        -0.00289
C         11.02613         1.98014        -0.25447
C         11.09179         3.41056        -0.63748
C         12.16829         1.31655         0.12469
C         12.33914         4.15355        -0.40410
C         11.05785         6.32718        -0.68506
C         11.09558         7.75978        -0.93582
C         12.32056         5.59488        -0.61307
C         12.30406         8.43355        -1.08393
C         11.07092        10.57427        -1.78992
C         11.08484        12.09111        -1.95428
C         12.37004         9.83294        -1.55930
C         12.37907        12.83746        -1.73503
C         10.99643        14.97241        -1.11662
C         10.99092        16.45666        -0.91816
C         12.29462        14.24065        -1.19833
C         12.24763        17.19911        -1.08597
C         11.06179        19.16166        -0.05532
C         12.26692        18.67851        -0.72373
C         13.44600         2.01315         0.50228
C         13.48154         3.50018         0.07526
C         14.65732         1.23692        -0.02537
C         14.70708         4.23378         0.11479
C         13.51684         6.28824        -0.67922
C         13.56511         7.78523        -0.56903
C         14.77505         5.53281        -0.58759
C         14.89503         8.43098        -0.93781
C         13.66877        10.58638        -1.44156
C         13.65788        12.09693        -1.46599
C         14.91018         9.89060        -0.98865
C         14.76317        12.80117        -0.72560
C         13.59095        14.99822        -1.17626
C         13.56523        16.48344        -1.09671
C         14.82942        14.28051        -0.78888
C         14.70323        17.11623        -0.28836
C         13.56638        19.33560        -0.47278
C         14.75470        18.62984        -0.44798
C         15.89682         1.55680         0.44123
C         15.91286         3.73472         0.63755
C         17.23673         1.17081         0.07870
C         17.18661         4.25637         0.37950
C         16.09362         6.26373        -0.67789
C         16.07478         7.74502        -0.82616
C         17.29007         5.62586        -0.07742
C         17.39625         8.43737        -0.87875
C         16.06532        10.58868        -0.77220
C         16.02903        12.03169        -0.47789
C         17.42886         9.96947        -0.94799
C         17.28227        12.76156        -0.27009
C         16.00166        14.95697        -0.54990
C         16.02316        16.39849        -0.45579
C         17.32946        14.22540        -0.59289
C         17.20486        17.07650        -0.16892
C         16.00893        19.26397        -0.30717
C         17.20144        18.52991        -0.09341
C         18.35843         1.98404         0.27008
C         18.37704         3.43800         0.48627
C         19.64589         1.33975         0.12098
C         19.60187         4.12070         0.53999
C         18.46483         6.30425         0.08943
C         18.61614         7.69669        -0.37567
C         19.59500         5.61167         0.80961
C         19.80243         8.44848         0.10018
C         18.50722        10.63454        -0.10815
C         18.47529        12.05308         0.02869
C         19.78470         9.91820         0.05188
C         19.62349        12.80010         0.49327
C         18.46981        14.95690         0.06049
C         18.43675        16.35792         0.11167
C         19.62827        14.22472         0.48171
C         19.60656        17.08298         0.50529
C         18.39228        19.20927         0.19771
C         19.58922        18.51614         0.51959
C         20.82685         2.00913         0.23625
C         20.85073         3.43367         0.44479
C         22.05823         4.14403         0.47963
C         20.91937         6.29940         0.58546
C         20.91286         7.75906         0.56528
C         22.08290         5.55963         0.52864
C         22.00881         8.47797         1.18269
C         20.96176        10.65473         0.68733
C         20.72851        12.06363         1.21572
C         21.98329         9.82447         1.34320
C         22.00296        12.85802         1.27942
C         20.80539        14.94987         0.86115
C         20.80298        16.38379         0.85428
C         22.00503        14.20595         1.15767
C         21.94886        17.14596         1.21104
C         20.75994        19.22803         0.86748
C         21.92303        18.53766         1.20931
O         15.57508         5.53729        -1.84726
O          4.46639         9.20743        -2.24694
O          3.18416         6.46547        -1.28814
O         14.42861        16.87819         1.07652
O         20.89931        10.52357        -0.74946
O         10.28223         9.93828        -2.82097
O         12.12424        18.23409        -2.11860
O         18.34124         7.84841        -1.83158
O         10.45260         3.68454        -1.92405
O         15.00448        12.29258         0.61938
O         15.90449         2.58013         1.43431
O         13.37891        12.67011        -2.77502
O         13.26478        10.00171        -2.72218
O          7.26977        18.36439        -0.69465
O          7.55477        12.46631        -2.78087
O         10.41145        12.50123        -3.17769
O          6.90366         8.54626         0.88719
O         11.52456        14.25838         0.06053
O         13.85639        15.85218        -2.36484
O          3.86105        12.51235        -2.05230
O         17.79422        10.32448        -2.31935
H         18.34574         9.57956        -2.66131
O          6.58719         7.79264        -2.32594
H          6.11530         8.52199        -2.80645
O         19.31288         5.77256         2.25448
H         19.99517         5.26313         2.74145
O         13.52876         8.02971         0.90939
H         12.71205         7.60853         1.25591
O          9.06305        20.47043         1.11705
H          8.80360        20.89002         0.27071
O         20.26866        11.86256         2.60054
H         20.11240        12.74822         2.99201
O         13.42753         1.97936         1.95608
H         14.33278         2.23525         2.25772
O         17.65932        14.21667        -2.04535
H         18.50434        13.72911        -2.15855
O          5.29080         6.34029         1.76822
H          5.95061         7.06973         1.67706
O          9.64310        14.94436        -3.07131
H          9.95100        14.26070        -3.71137
H          0.82191         1.82773         2.78378
H          0.68708         4.24485         2.29612
H          2.81388         0.50299         2.08406
H          0.48801         6.06714         1.60440
H          0.38541         8.40465         0.98407
H          0.23212        10.17447         0.41058
H          0.23526        12.58973         0.48463
H          0.21236        14.49649         0.20456
H          0.35785        16.85388         0.87610
H          1.72326        18.74785         1.63040
H          5.05070         0.41064         1.08874
H          3.95706        19.76730         2.03574
H          7.34419         0.31929         0.26382
H          6.38651        19.21758         2.43718
H          9.72337         0.25276        -0.04527
H          9.09252        18.61540         1.99916
H         12.09582         0.25267         0.40010
H         11.14296        20.08515         0.53942
H         14.52145         0.48814        -0.81771
H         13.56879        20.42287        -0.29121
H         17.40232         0.15472        -0.31261
H         16.07039        20.36166        -0.38455
H         19.65339         0.25445        -0.06024
H         18.39115        20.30983         0.23020
H         21.78235         1.47288         0.14270
H         23.00635         3.59497         0.39062
H         23.05265         6.07090         0.43906
H         22.80418         7.89071         1.66395
H         22.72539        10.31219         1.99162
H         22.94010        12.33051         1.50752
H         22.95622        14.74478         1.26796
H         22.88016        16.64056         1.49848
H         20.74327        20.32701         0.87222
H         22.82786        19.09656         1.48572
