         272
 CSIRO Nanostructure Databank - Neutral Graphene Oxide Data Set
C        -11.36881         0.57441        -0.87687
C        -10.20746         1.48254        -0.48906
C         -8.91520         0.66793        -0.40042
C         -7.59215         1.38862        -0.47231
C         -6.36094         0.66411        -0.03228
C         -5.30187         1.38837         0.79089
C         -3.98137         0.60950         0.91972
C         -2.67312         1.33810         0.77648
C         -1.41879         0.76097         1.41817
C         -0.12457         1.47165         1.03449
C          1.12445         0.70177         1.31126
C          2.39704         1.45178         1.49465
C          3.64301         0.77172         1.00016
C          4.90733         1.54387         0.85545
C          6.23822         0.81060         0.90197
C          7.22632         1.61577         0.00322
C          8.54523         0.88449        -0.32671
C          9.79388         1.64244        -0.64289
C         11.06401         0.88968        -0.83343
C        -10.03650         2.79902        -1.28867
C         -8.85512         3.63928        -0.78637
C         -7.57730         2.89265        -0.60918
C         -6.32780         3.61133        -0.22553
C         -5.18027         2.88326         0.44142
C         -3.86531         3.59049         0.40178
C         -2.61884         2.76843         0.36269
C         -1.29418         3.47634         0.18004
C         -0.05819         2.76380         0.60550
C          1.24669         3.52474         0.59675
C          2.28643         2.99400         1.57591
C          3.63584         3.71113         1.45650
C          4.95188         2.99942         1.25209
C          6.16860         3.77887         0.86919
C          7.49297         3.00851         0.71733
C          8.54094         3.77977        -0.07339
C          9.87789         3.10996        -0.26479
C         -8.83126         4.99650        -0.75989
C         -7.51699         5.76625        -0.87485
C         -6.34984         5.12301        -0.07964
C         -4.99424         5.70591        -0.59051
C         -3.80441         5.07040         0.10910
C         -2.49780         5.76554        -0.00369
C         -1.25400         4.93749        -0.15227
C          0.05400         5.67788        -0.22896
C          1.29777         5.01005         0.29390
C          2.38158         5.89804         0.80974
C          3.58997         5.22351         1.33518
C          4.93568         5.95012         1.15317
C          6.12683         5.14650         0.76747
C          7.25760         5.87077         0.17472
C          8.42332         5.11158        -0.25464
C         -7.48193         7.24401        -0.55718
C         -6.28295         7.90540        -0.44848
C         -4.99174         7.21171        -0.46389
C         -3.79324         7.88314        -0.41905
C         -2.49687         7.19405        -0.41930
C         -1.31103         7.85756        -0.55909
C          0.00331         7.15756        -0.41231
C          1.20528         7.92905        -0.03083
C          2.34019         7.29662         0.54383
C          3.56672         8.14011         0.74476
C          4.89864         7.43592         0.87033
C          6.12663         8.15054         0.28782
C          7.25669         7.21510        -0.02671
C         -6.24271         9.36112        -0.33451
C         -5.08071        10.04824        -0.28328
C         -3.77730         9.35754        -0.27825
C         -2.50133        10.08005        -0.58398
C         -1.29926         9.27697        -1.07903
C         -0.01510         9.98145        -0.78592
C          1.16048         9.35147        -0.33226
C          2.31462        10.13015        -0.21843
C          3.63864         9.56905         0.14361
C          4.56632         9.53391        -1.07317
C          5.73948         8.90230        -0.97758
C        -11.32110        -0.75851        -1.06236
C        -10.02955        -1.52386        -1.27798
C         -8.89942        -0.82100        -0.54343
C         -7.54439        -1.49349        -0.67749
C         -6.49386        -0.81437         0.28980
C         -5.09193        -1.47951         0.15052
C         -3.97828        -0.76025         0.94396
C         -2.69401        -1.52091         1.15862
C         -1.38770        -0.78493         1.26760
C         -0.15493        -1.47320         0.72681
C          1.15415        -0.69927         0.76320
C          2.41651        -1.46019         0.77069
C          3.71027        -0.74869         1.17386
C          4.95398        -1.33130         0.52379
C          6.11488        -0.63417         0.42469
C          7.40810        -1.34765         0.18150
C          8.68407        -0.57995         0.00933
C         10.01089        -1.31877        -0.30150
C         11.09228        -0.44887        -0.89350
C        -10.01063        -3.04112        -1.07485
C         -8.85754        -3.76719        -0.84440
C         -7.63089        -3.00665        -0.32246
C         -6.22228        -3.65134        -0.70143
C         -5.25455        -2.98993         0.44268
C         -3.91537        -3.72180         0.54583
C         -2.64688        -3.01056         0.89319
C         -1.33546        -3.72193         0.71978
C         -0.09746        -2.95924         0.66272
C          1.14365        -3.58573         0.56625
C          2.38092        -2.82540         0.58190
C          3.65310        -3.55039         0.29638
C          4.92938        -2.79287         0.22151
C          6.23952        -3.55049         0.40009
C          7.33036        -2.77358        -0.35380
C          8.67732        -3.51446        -0.35018
C          9.77911        -2.65971        -0.93285
C         -8.80998        -5.20396        -0.65144
C         -7.61129        -5.91717        -0.46758
C         -6.37782        -5.18480        -0.92712
C         -4.97120        -5.95271         0.34151
C         -3.94348        -5.06540        -0.10603
C         -2.46519        -6.04675         0.96861
C         -1.31637        -5.10077         0.69110
C         -0.06238        -5.85390         0.49526
C          1.22515        -5.07511         0.46816
C          2.50069        -5.78571         0.85429
C          3.75744        -5.00750         0.64179
C          4.97096        -5.71028         0.13949
C          6.14484        -4.98585        -0.08320
C          7.23574        -5.58419        -0.78690
C          8.51793        -4.83590        -1.11589
C         -7.49610        -7.32480        -0.29939
C         -6.24520        -8.02944        -0.24505
C         -5.02838        -7.36947        -0.04850
C         -3.73744        -8.06341        -0.19424
C         -2.46222        -7.33477         0.13126
C         -1.24359        -8.10482         0.35093
C         -0.05485        -7.34080         0.76725
C          1.26458        -8.06819         0.78197
C          2.61537        -7.33755         0.89500
C          3.68119        -7.85573        -0.05214
C          4.83871        -7.05928        -0.32233
C          5.92235        -7.64044        -1.04540
C          7.09516        -6.87492        -1.27471
C         -6.15624        -9.46381        -0.55926
C         -4.99886       -10.16550        -0.52303
C         -3.73331        -9.56206         0.04707
C         -2.39443       -10.17173        -0.29106
C         -1.20783        -9.48122         0.00328
C          0.10828       -10.11027        -0.06505
C          1.25733        -9.46101         0.26890
C          2.60959       -10.12589         0.15669
C          3.65489        -9.19773        -0.42526
C          4.71503        -9.74274        -1.19642
C          5.81784        -8.97999        -1.51244
O         -3.88013        -9.70076         1.50764
H         -3.04481        -9.40221         1.92883
O          8.06614         2.73674         1.95640
O         -3.45338        -3.70528         1.91230
O          9.02876        -3.83983         1.01446
H          9.63163        -4.61731         0.96072
O          1.79074         3.96970        -0.66259
O          4.33607         5.75996         2.46165
O          4.22600        -3.18017        -1.01510
O          1.76056         0.79239         2.63698
O         10.62490        -1.71301         0.96816
H          9.95279        -2.25795         1.45544
O         -3.54803        -5.03808        -1.39748
H         -3.61789        -5.94506        -1.79891
O          4.27590         8.11332         2.00695
O         -5.70239        -3.22974        -1.94076
H         -5.56979        -4.04619        -2.49916
O          4.45248         3.27440         2.59473
O         -2.62454         1.68173        -0.64734
O         10.53651         3.16766         1.01149
H          9.81806         3.01621         1.69106
O         -1.28858         3.94726        -1.22013
O         -4.75356         5.35533        -1.96778
H         -5.51714         5.69818        -2.49758
O          6.59121         9.13345         1.25404
H          6.64473         8.68746         2.12649
O         -2.84554         9.85605         0.78379
O         -2.91261        -6.17334         2.12581
O         -7.27420         5.70063        -2.31883
H         -7.25537         4.73892        -2.55390
O         -4.65164         3.51833         1.64416
O         -7.89731        -3.18591         1.03080
O          8.88034         1.21458        -1.72365
O         -9.78664         2.51913        -2.66892
H         -8.90181         2.10704        -2.75990
O         -5.39491        -5.73211         1.63793
H         -5.69554        -6.56963         2.04583
O         -5.83210        -3.09171         1.72359
H         -5.72156        -4.00896         2.06920
O          8.26264        -1.01940         1.33824
O         -3.21586         5.69928         1.28707
O          6.62012        -3.49179         1.82921
O          0.27576         6.24717        -1.56457
O         -7.23288        -1.31762        -2.06673
H         -6.30481        -1.61796        -2.24002
O          4.07338         1.25586        -0.30600
O          6.95974        -2.67215        -1.74365
H          5.98778        -2.54827        -1.82543
O          0.51822        -7.82123         2.03476
O          3.21149        -5.21283         1.98742
O         -1.98893        -1.36204         2.45612
O         -9.11794        -0.24506         0.75813
O         -6.91491        -0.88902         1.65065
H         -7.43330        -1.73617         1.77327
O         -2.92261        -7.49251        -1.28890
O         -6.54619         3.25818        -1.62380
O          0.63822        -5.58094        -0.77598
O          6.53579         1.88014        -1.20935
H          7.19607         1.85436        -1.94397
O          3.86734        -1.01736         2.59857
H          3.15534        -0.51781         3.07011
O         -6.56489         0.89612        -1.43525
O         -5.94011        -5.61302        -2.03710
O         -9.78273        -1.41016        -2.71161
H         -8.80283        -1.48534        -2.85215
O          6.63817         0.83579         2.26593
H          7.48685         0.34126         2.36095
O          3.05084       -10.48497         1.47924
H          3.18236        -9.64278         1.98213
O          0.37071        -0.81939        -0.46785
O          9.66895        -5.62463        -0.78517
H          9.54718        -6.53329        -1.12826
O         -4.58670        -1.29774        -1.18834
H         -4.60459        -0.34118        -1.41209
O          3.11797        -7.71184         2.20226
H          2.44312        -7.43977         2.86396
O         -6.53219         5.47809         1.29375
H         -5.84127         5.01052         1.82482
O         -1.54168         1.06863         2.82348
H         -1.91782         0.27267         3.27281
O          1.77133         3.34692         2.86750
H          2.46997         3.15644         3.53159
O         -5.84330         1.43450         2.13535
H         -6.21078         0.53975         2.35462
O          5.41717        -3.63511         2.62166
H          5.19425        -2.70316         2.88477
O         -1.43355         9.22266        -2.53629
H         -0.79135         8.56116        -2.87278
O        -10.50060         1.94235         0.85310
H        -10.39116         1.16743         1.44975
O          4.21625        10.48548         1.08566
H          5.12093        10.14848         1.31910
H         12.03307        -0.96507        -1.13809
H         11.95253         1.47685        -1.11150
H         10.50132         3.67080        -1.00984
H          9.24558         5.67572        -0.72343
H          8.14228         7.67775        -0.48889
H          6.45681         8.92022        -1.81239
H          4.29714        10.09916        -1.97784
H          2.25721        11.21281        -0.40579
H          0.04282        11.05129        -1.03946
H         -2.54352        11.14339        -0.91357
H         -5.08119        11.14443        -0.19649
H         -7.20181         9.89992        -0.31552
H         -8.42020         7.82016        -0.54777
H         -9.76182         5.55505        -0.95310
H        -10.98154         3.38991        -1.23002
H        -12.36001         1.05480        -0.83158
H        -12.26261        -1.30207        -1.24311
H        -10.91220        -3.58351        -1.40946
H         -9.76654        -5.74696        -0.56668
H         -8.41767        -7.92840        -0.32474
H         -7.07594        -9.95907        -0.90648
H         -4.99348       -11.22770        -0.81093
H         -2.34442       -11.23558        -0.56768
H          0.16381       -11.14627        -0.43379
H          2.53559       -11.06660        -0.44243
H          4.66199       -10.79626        -1.50637
H          6.64950        -9.41349        -2.08615
H          7.90967        -7.33442        -1.85696
H          8.52262        -4.62084        -2.22355
H         10.66527        -3.18860        -1.32512
