         634
 CSIRO Nanostructure Databank - Neutral Graphene Oxide Data Set
C         23.41228        69.52720        -1.96691
C         23.54193        70.80488        -2.48391
C         22.59142        71.32533        -3.42618
C         23.79044        73.43337        -3.55542
C         22.70687        72.61287        -3.91679
C         25.31652        65.66685         0.60049
C         25.39848        67.03588        -0.04450
C         24.27911        67.67699        -0.41951
C         25.61565        69.78238        -0.79994
C         24.25098        69.13251        -0.78901
C         25.68967        71.15210        -1.27609
C         24.67171        71.64826        -2.10283
C         25.96439        73.72367        -2.42946
C         24.79770        72.96104        -2.68846
C         27.85265        61.38741         0.47448
C         27.84607        62.79874         0.52218
C         26.63103        63.53494         0.48724
C         27.84776        65.63795         0.69138
C         26.63137        64.92294         0.57464
C         27.78152        67.14075         0.81666
C         26.76512        67.65486        -0.23337
C         27.85056        69.98188         0.27919
C         26.71290        69.16046        -0.28101
C         28.01161        71.30111        -0.43698
C         26.92203        71.87574        -1.11045
C         28.26899        73.88587        -1.57431
C         27.03831        73.19038        -1.70188
C         30.29045        57.08133         0.57940
C         30.27946        58.49047         0.52871
C         29.06635        59.23558         0.47693
C         30.30358        61.37475         0.60773
C         29.06094        60.64959         0.51680
C         30.30685        62.79402         0.64488
C         29.08202        63.52099         0.60658
C         30.33266        65.66483         0.73135
C         29.07889        64.94850         0.66201
C         30.34473        67.11903         0.74220
C         29.12104        67.84086         0.65341
C         30.36275        69.97022         0.56541
C         29.14780        69.22539         0.45106
C         30.38262        71.37056         0.24786
C         29.25588        71.98738        -0.33896
C         30.63262        73.96745        -0.95894
C         29.36856        73.31071        -0.93523
C         32.79721        52.79258        -0.10359
C         32.75203        54.20961         0.12429
C         31.54555        54.88840         0.37398
C         32.76626        57.03147         0.40598
C         31.53769        56.30117         0.90094
C         32.77111        58.52853         0.37065
C         31.51083        59.24501         0.56818
C         32.79073        61.36943         0.65163
C         31.53521        60.64923         0.62364
C         32.77174        62.76618         0.72335
C         31.54621        63.50761         0.73702
C         32.78706        65.67458         1.04836
C         31.53006        64.93202         0.78375
C         32.85578        67.11032         0.58738
C         31.56410        67.85694         0.82308
C         32.82441        70.00189         1.18019
C         31.56779        69.25661         0.86952
C         32.85825        71.48753         0.91353
C         31.56101        72.25662         0.60444
C         32.99892        74.07192        -0.37807
C         31.75035        73.42723        -0.33295
C         35.17125        48.48202        -0.90492
C         35.21816        49.96690        -0.62960
C         34.02360        50.65919        -0.48328
C         35.26238        52.75446        -0.30764
C         34.00308        52.07128        -0.27375
C         35.26978        54.18478         0.03229
C         34.00788        54.91469         0.16735
C         35.24847        57.04015         0.35637
C         34.07019        56.31067         0.39732
C         35.25884        58.43349         0.91231
C         34.03637        59.24487         0.54512
C         35.31678        61.28983         0.90230
C         34.05014        60.62287         0.68676
C         35.34335        62.75775         0.82427
C         34.05250        63.50074         0.72638
C         35.36822        65.65536         1.05663
C         34.07068        64.93325         1.12742
C         35.32963        67.10757         1.04697
C         34.13300        67.79748         0.98701
C         35.37656        69.96481         0.89834
C         34.14383        69.24279         1.41547
C         35.35023        71.34117         0.57455
C         34.16656        72.09459         0.54968
C         35.42592        74.14139        -0.05212
C         34.18918        73.45306         0.05562
C         37.68472        44.24603        -0.19093
C         37.66620        45.61767        -0.37981
C         36.48242        46.39240        -0.56629
C         37.70753        48.53151        -0.70718
C         36.49608        47.77706        -0.71874
C         37.72756        49.94713        -0.65828
C         36.46431        50.66173        -0.64468
C         37.71447        52.78143        -1.05525
C         36.45758        52.07812        -0.56792
C         37.70322        54.29991        -0.82251
C         36.52238        54.96988        -0.18991
C         37.77698        57.11912         0.09830
C         36.46472        56.48519        -0.33104
C         37.75492        58.50964         0.50578
C         36.55433        59.17542         0.74015
C         37.79176        61.28282         1.18716
C         36.53636        60.59134         0.97923
C         37.76105        62.69803         1.64199
C         36.50711        63.48431         1.41427
C         37.81496        65.65338         1.40790
C         36.53872        64.96630         1.27756
C         37.81245        67.11344         1.28180
C         36.59473        67.82226         1.12626
C         37.85982        69.92666         0.79307
C         36.60122        69.23726         0.92250
C         37.88710        71.30994         0.48432
C         36.61288        71.95585        -0.00001
C         37.87669        74.12873         0.02196
C         36.64736        73.46395         0.06433
C         40.18845        39.94711        -0.13149
C         40.15833        41.38442        -0.03722
C         38.94715        42.10230        -0.15490
C         40.16150        44.20844         0.03334
C         38.92999        43.50965        -0.09564
C         40.12997        45.69800         0.24178
C         38.96618        46.31792        -0.49383
C         40.23143        48.52973        -0.37011
C         38.98519        47.80691        -0.67610
C         40.20321        49.93906        -0.31951
C         38.96982        50.65206        -0.49156
C         40.16896        52.80873        -0.44970
C         38.99438        52.10518        -0.57050
C         40.24735        54.27433        -0.72633
C         38.97567        55.06745        -0.68255
C         40.23892        57.12932         0.07853
C         38.96600        56.44567        -0.10020
C         40.20131        58.53203         0.44047
C         39.00738        59.22068         0.63303
C         40.26817        61.36173         1.10317
C         39.00140        60.62141         1.02359
C         40.28404        62.77395         1.33605
C         39.05861        63.44791         1.91796
C         40.26821        65.63706         1.77124
C         38.98230        64.93466         1.59136
C         40.28777        67.14545         1.62473
C         39.03444        67.83545         1.29629
C         40.33844        69.93230         0.96140
C         39.07796        69.22466         1.02496
C         40.34361        71.32775         0.63579
C         39.10505        72.00763         0.41635
C         40.33539        74.10648         0.01217
C         39.11817        73.43654         0.13236
C         42.64791        35.69373        -0.69438
C         42.59820        37.09028        -0.45215
C         41.41153        37.81216        -0.41304
C         42.63816        39.92793         0.00485
C         41.38479        39.22718        -0.15117
C         42.61380        41.34757         0.49549
C         41.37099        42.10262         0.13351
C         42.63925        44.25127         0.23818
C         41.38186        43.51215         0.13908
C         42.65554        45.65459         0.13336
C         41.43710        46.40263        -0.02530
C         42.75286        48.51307        -0.43139
C         41.44529        47.78215        -0.23368
C         42.65800        49.97935        -0.06058
C         41.45183        50.64915        -0.09463
C         42.69902        52.79823        -0.35808
C         41.40574        52.15101         0.14425
C         42.75642        54.30083        -0.15514
C         41.51837        55.03782        -0.51401
C         42.73969        57.23363        -0.28861
C         41.44407        56.47406        -0.15990
C         42.74892        58.51561         0.50632
C         41.46388        59.22691         0.74064
C         42.72386        61.44456         0.52000
C         41.46721        60.68691         0.88788
C         42.78882        62.83570         1.10107
C         41.50567        63.51128         1.32122
C         42.77664        65.64474         1.16595
C         41.51142        64.89847         1.51552
C         42.75433        67.12646         1.42020
C         41.57996        67.83062         1.37720
C         42.81483        69.93723         0.96369
C         41.56644        69.26081         1.16051
C         42.81053        71.31932         0.57523
C         41.58051        72.01272         0.45682
C         42.79374        74.07843        -0.11136
C         41.58413        73.42361         0.12086
C         45.13870        32.93692        -1.17837
C         43.91696        33.59377        -0.99302
C         45.12537        35.73451        -0.79801
C         43.86855        34.99193        -0.79043
C         45.10861        37.10116        -0.63604
C         43.88859        37.76763        -0.06002
C         45.07901        40.00368        -0.12799
C         43.85913        39.27452        -0.14181
C         45.10355        41.40868         0.10428
C         43.88522        42.11362         0.25926
C         45.12487        44.22737         0.35292
C         43.87861        43.52334         0.29718
C         45.12709        45.64899         0.41834
C         43.90796        46.36981         0.24101
C         45.14024        48.46212         0.42827
C         43.94268        47.77701         0.14774
C         45.23187        49.93147         0.09926
C         43.91132        50.69133         0.13123
C         45.18233        52.82716         0.20003
C         43.91400        52.05913         0.15767
C         45.13497        54.27141         0.63603
C         43.91665        54.98681         0.09712
C         45.18466        57.10017         0.15965
C         43.98132        56.43017         0.04414
C         45.23951        58.55054         0.30142
C         44.01296        59.28914         0.51260
C         45.23981        61.34709         0.97041
C         43.98771        60.64527         0.70674
C         45.25816        62.82623         1.06374
C         43.99089        63.48720         1.29377
C         45.28363        65.67645         1.35457
C         44.00900        64.94272         1.73250
C         45.29286        67.06772         1.30884
C         44.05236        67.85094         1.67056
C         45.27099        69.90142         0.85370
C         44.04036        69.25270         1.11953
C         45.26515        71.27346         0.40527
C         44.05094        71.97174         0.28976
C         45.21908        73.99202        -0.49665
C         44.04501        73.37810        -0.10640
C         46.34875        33.63031        -1.19340
C         47.59990        35.74968        -0.97911
C         46.38574        35.03823        -1.02295
C         47.63590        37.16196        -0.85634
C         46.33883        37.87278        -0.86084
C         47.60589        40.03559        -0.33174
C         46.32668        39.36052        -0.56864
C         47.59717        41.40654         0.00071
C         46.35708        42.11312         0.14327
C         47.61038        44.21985         0.49523
C         46.36304        43.51634         0.34445
C         47.60954        45.63988         0.64522
C         46.35520        46.34961         0.61086
C         47.56558        48.41441         1.28617
C         46.32686        47.76084         0.71045
C         47.57737        49.94401         1.21599
C         46.25364        50.66780         0.97442
C         47.68978        52.83919         0.68076
C         46.44173        52.08353         0.44673
C         47.67188        54.26202         0.49506
C         46.44930        54.98428         0.41142
C         47.68223        57.08026         0.10038
C         46.45657        56.37886         0.23952
C         47.62456        58.50212        -0.43208
C         46.44735        59.21284         0.20643
C         47.76128        61.35732         0.46562
C         46.52699        60.59028         0.67302
C         47.71224        62.86391         0.45527
C         46.45998        63.51368         1.01948
C         47.73061        65.66009         1.18746
C         46.49734        64.94979         1.18915
C         47.75815        67.06146         1.12972
C         46.51971        67.78310         1.12499
C         47.78836        69.97156         1.00799
C         46.50188        69.19294         0.96002
C         47.72096        71.27791         0.25228
C         46.51365        71.90370         0.03322
C         47.73147        73.98378        -0.63820
C         46.46297        73.19207        -0.76112
C         48.81455        37.90567        -0.76798
C         50.04543        40.02626        -0.40391
C         48.82958        39.31694        -0.51770
C         50.08066        41.40500        -0.09126
C         48.83541        42.11728         0.15253
C         50.12429        44.16571         0.84374
C         48.83195        43.48647         0.45305
C         50.11313        45.65862         0.59264
C         48.84337        46.37421         0.64021
C         50.06217        48.52096         0.70014
C         48.85020        47.77899         0.77572
C         50.12172        49.91266         0.85875
C         48.87395        50.68154         1.07408
C         50.13365        52.81076         0.65136
C         48.88977        52.13616         0.76788
C         50.13843        54.22617         0.44827
C         48.90706        54.95831         0.40309
C         50.14574        57.09072         0.20022
C         48.90704        56.38041         0.21993
C         50.18705        58.52364         0.06017
C         48.98177        59.31972        -0.43583
C         50.19797        61.42455         0.28887
C         48.93658        60.70009         0.22279
C         50.25030        62.73460         0.70101
C         48.98587        63.43889         1.04203
C         50.30826        65.64693         1.50384
C         48.99230        64.89638         1.35897
C         50.25674        67.06219         0.95413
C         49.02712        67.76888         0.94614
C         50.20875        69.82048         0.29002
C         49.01987        69.15777         0.69284
C         50.16680        71.23474        -0.06808
C         48.96919        71.92196        -0.10479
C         50.17826        74.07652        -0.43050
C         48.93663        73.35577        -0.42784
C         51.29261        42.12106        -0.09577
C         52.54197        44.19834         0.24965
C         51.36081        43.49617         0.26780
C         52.59415        45.59452         0.80183
C         51.29527        46.32949         0.52904
C         52.57566        48.44743         0.96229
C         51.34209        47.81618         0.28377
C         52.59407        49.94132         0.72577
C         51.36340        50.63695         0.76507
C         52.59737        52.77100         0.60911
C         51.37010        52.07651         0.68960
C         52.61480        54.20559         0.42248
C         51.36485        54.91196         0.29938
C         52.59244        57.02669         0.15425
C         51.37386        56.35186         0.23035
C         52.65462        58.46164         0.56109
C         51.37684        59.19601         0.20841
C         52.69037        61.28758         0.60317
C         51.46147        60.67921        -0.08358
C         52.73381        62.78311         0.48962
C         51.49841        63.49527         0.75325
C         52.81779        65.58264         1.11460
C         51.50652        64.85657         0.99956
C         52.74115        67.03369         0.69871
C         51.46056        67.73864         0.65573
C         52.69959        69.74163        -0.25821
C         51.41971        69.10007         0.25037
C         52.69207        71.25251        -0.26196
C         51.39633        71.90957        -0.64548
C         52.63033        74.09728        -0.39899
C         51.40764        73.40996        -0.43371
C         53.81437        46.37476         0.39989
C         55.03791        48.49950         0.32765
C         53.84000        47.74291         0.50597
C         55.06005        49.89897         0.44632
C         53.81536        50.62604         0.59111
C         55.08014        52.74862         0.52591
C         53.84174        52.05877         0.56740
C         55.12581        54.25264         0.68896
C         53.82203        54.88947         0.30384
C         55.08827        57.03143        -0.19648
C         53.79855        56.26882        -0.28103
C         55.07181        58.41085        -0.25682
C         53.89587        59.17965         0.07283
C         55.15611        61.29537        -0.11121
C         53.93457        60.56097         0.14153
C         55.17870        62.73071         0.05218
C         53.95376        63.44992         0.35589
C         55.17597        65.57724         0.29725
C         53.99030        64.87011         0.49548
C         55.18728        67.01563         0.40129
C         53.92477        67.71082         0.52742
C         55.16956        69.88702         0.18519
C         53.87723        69.21616         0.55534
C         55.15008        71.26404        -0.09237
C         53.86569        71.95273        -0.24493
C         55.08371        74.08367        -0.59063
C         53.88831        73.41242        -0.41448
C         56.27835        50.63475         0.40197
C         57.60734        52.76692         0.64981
C         56.29444        52.02749         0.48683
C         57.59735        54.19664         0.13517
C         56.33879        54.91065         0.05063
C         57.53323        56.95038        -0.73187
C         56.30356        56.24947        -0.31014
C         57.56660        58.42070        -0.66873
C         56.25833        59.15305        -0.82877
C         57.56794        61.28947        -0.62632
C         56.32301        60.60654        -0.44790
C         57.59933        62.73235        -0.45936
C         56.37883        63.43204        -0.10163
C         57.59759        65.58675        -0.08180
C         56.40200        64.87243         0.02281
C         57.61304        67.01231        -0.02588
C         56.38646        67.71966         0.23069
C         57.59817        69.88272         0.08028
C         56.38341        69.17324         0.20258
C         57.58284        71.27553        -0.15587
C         56.36889        71.95160        -0.29746
C         57.57974        74.12593        -0.24671
C         56.39501        73.37716        -0.79431
C         58.79645        54.82444        -0.07751
C         60.07491        57.02864        -0.41027
C         58.87741        56.20516        -0.57786
C         60.05031        58.40836        -0.59850
C         58.76527        59.10721        -0.70649
C         60.01246        61.24258        -1.08400
C         58.75579        60.55441        -0.79012
C         60.01016        62.77966        -1.04134
C         58.78882        63.43161        -0.57904
C         59.98113        65.59312        -0.89180
C         58.91293        64.85131        -0.08966
C         60.05602        67.05040        -0.51200
C         58.82727        67.72573        -0.22384
C         60.04340        69.84610        -0.02056
C         58.85316        69.15424        -0.02691
C         59.99273        71.28831         0.42400
C         58.89356        72.00020        -0.39715
C         59.99677        74.18043         0.19325
C         58.80962        73.48700        -0.08848
C         61.26515        59.16961        -0.59586
C         62.49411        61.30310        -0.82937
C         61.30042        60.55203        -0.84365
C         62.52873        62.73397        -0.86763
C         61.30195        63.48272        -0.87968
C         62.52335        65.59791        -0.75382
C         61.30425        64.87048        -0.80497
C         62.51407        67.02815        -0.69226
C         61.26180        67.73322        -0.59218
C         62.55283        69.90103        -0.30174
C         61.25020        69.23913        -0.65700
C         62.57213        71.27753        -0.04681
C         61.33776        72.00918         0.35004
C         62.55103        74.23869        -0.20131
C         61.30862        73.50514         0.28245
C         63.74105        63.45581        -0.82064
C         64.97665        65.61182        -0.74770
C         63.76241        64.87323        -0.77574
C         64.97971        67.01277        -0.66838
C         63.74048        67.73708        -0.62862
C         64.99977        69.85494        -0.30672
C         63.76130        69.17088        -0.44471
C         65.01357        71.25264        -0.10285
C         63.80916        71.98167        -0.01962
C         65.02873        74.10790        -0.13095
C         63.83258        73.44199        -0.02904
C         66.21458        67.74811        -0.62656
C         67.48378        69.86252        -0.52506
C         66.24214        69.11956        -0.45972
C         67.52640        71.22054        -0.34726
C         66.31597        71.95136         0.18657
C         67.48068        74.07735        -0.38533
C         66.29351        73.42216        -0.15726
C         68.73650        71.98378        -0.53318
C         68.71303        73.35287        -0.52190
O         32.70934        70.97273         2.29138
O         59.93168        62.04715        -2.30669
O         42.18222        58.44915         1.84475
O         48.24090        50.47298         2.42007
O         46.02092        52.44615        -0.93560
O         48.86766        63.87662         2.43557
O         34.88827        63.28636        -0.47169
O         38.23704        55.02177        -1.97619
O         46.20247        38.84185        -1.96481
O         49.25796        59.70211        -1.77954
O         33.34204        65.30712         2.35121
O         58.21498        56.38312        -1.88615
O         46.02106        60.74140         2.06512
O         36.80510        62.94213         2.74761
O         36.26026        54.48488         1.14715
O         32.63603        57.68063        -0.88610
O         61.56587        72.81681         1.57179
O         40.28985        66.51881         2.96002
O         41.05763        54.68436        -1.88873
O         39.21385        46.84975        -1.81612
O         66.45447        71.90832         1.65674
H         67.28212        72.38562         1.87910
O         47.50510        48.05595         2.70016
H         48.05991        48.71805         3.17597
O         37.67429        52.57429        -2.49235
H         38.22005        53.28757        -2.89870
O         62.39487        74.56860        -1.59441
H         62.39310        73.73828        -2.11375
O         42.53895        41.19260         1.97997
H         43.20240        40.51426         2.23356
O         27.41467        70.28887         1.66810
H         26.58754        70.81428         1.60592
O         44.02192        37.52636         1.40324
H         43.89165        36.56376         1.54739
O         34.14245        47.85149        -0.13172
H         34.36199        47.95826         0.81631
O         27.26807        67.46779         2.13068
H         27.29254        68.45379         2.22300
O         44.96047        54.21161         2.08780
H         44.76764        55.11771         2.40964
O         47.94684        70.34685         2.43261
H         47.10517        70.76030         2.72185
O         53.14296        65.61018         2.56126
H         52.29775        65.86191         3.01987
O         59.38715        64.81068         1.29182
H         58.65939        64.46868         1.85232
O         45.62005        50.79516         2.26725
H         46.32817        50.98558         2.92299
O         52.86546        69.33176        -1.64175
H         52.27889        69.91003        -2.18313
O         59.54568        71.28800         1.79788
H         60.11229        71.94000         2.27808
O         32.92312        66.98102        -0.88349
H         33.01897        67.87829        -1.26693
O         58.68678        52.03332         0.06594
H         58.59098        52.06946        -0.90778
O         51.50814        48.02571        -1.14916
H         50.74168        47.62112        -1.60663
O         50.50751        65.82068         2.95086
H         50.11643        65.01686         3.37095
O         34.33643        69.15820         2.86478
H         33.99203        70.00184         3.24181
O         44.11196        67.97338         3.14175
H         43.98174        67.06169         3.50034
O         55.30407        54.49277         2.13942
H         54.49785        54.16451         2.59239
O         39.82352        45.91148         1.66555
H         40.48496        45.41210         2.19021
O         31.67563        56.25050         2.37080
H         30.94218        55.70314         2.72147
O         45.69295        49.93578        -1.27641
H         44.97706        49.52891        -1.81806
O         52.45869        48.26630         2.39297
H         52.57740        47.29880         2.58402
O         35.11002        58.25586         2.37585
H         35.21934        59.13601         2.79651
O         52.71371        58.40703         2.03334
H         52.59925        59.34181         2.35160
O         47.27145        58.27985        -1.81893
H         47.97195        58.79689        -2.32700
O         52.65073        45.47688         2.28121
H         51.83721        44.97254         2.54935
O         61.06470        69.56069        -2.10686
H         60.45554        70.33958        -2.16402
O         50.24240        44.01617         2.30847
H         50.22283        43.05538         2.50669
O         36.55022        71.63411        -1.44242
H         37.32435        72.06266        -1.86647
O         42.91931        65.53001        -0.29584
H         42.21772        66.07006        -0.71677
O         52.51003        61.05558         2.04890
H         53.15438        61.62040         2.52654
O         42.72460        52.57885        -1.79535
H         43.59392        52.87781        -2.13694
O         56.62813        73.26903        -2.26727
H         55.84397        72.81620        -2.64732
O         31.15905        72.90921         1.85067
H         31.31303        72.25216         2.56903
O         53.60097        69.60112         1.93660
H         54.28872        69.19822         2.50685
O         59.54146        65.56097        -2.27698
H         60.18748        66.06498        -2.81470
O         59.22679        71.87276        -1.80899
H         58.49119        72.31217        -2.30374
O         51.64540        60.77548        -1.50932
H         50.79763        60.38339        -1.89944
O         55.99405        59.14603        -2.28103
H         56.73160        59.62414        -2.71725
O         27.24332        67.21517        -1.54103
H         28.12360        67.62029        -1.69215
O         24.27040        64.88979         0.01296
H         24.44169        64.82870        -0.94908
O         36.28472        56.81889        -1.73702
H         37.03564        56.40474        -2.23020
O         47.70414        63.24836        -0.96359
H         48.16935        62.54881        -1.47323
O         43.90930        65.01307         3.18110
H         44.60228        64.43641         3.56686
O         41.34301        52.39239         1.57623
H         40.63155        51.83448         1.95391
O         43.03022        48.53310        -1.88575
H         42.22503        48.87442        -2.33275
O         46.37036        72.78760        -2.18839
H         45.53480        72.28270        -2.28712
O         42.61060        61.63853        -0.94193
H         41.93961        62.33637        -1.09952
O         42.83008        57.63075        -1.68886
H         42.76015        56.82245        -2.24034
O         39.27978        63.40196         3.35711
H         38.39378        63.49436         3.77872
O         51.28637        71.69723        -2.10852
H         50.45574        72.13193        -2.40211
O         23.57583        69.77662         0.36626
H         23.41223        70.71320         0.12246
O         53.63014        56.06382        -1.74948
H         52.75829        55.63435        -1.88773
H         23.88029        74.44105        -3.98556
H         26.06135        74.72320        -2.87888
H         28.37108        74.88065        -2.03298
H         30.73355        74.89835        -1.53767
H         33.06887        75.05483        -0.86882
H         35.41735        75.22702        -0.23174
H         37.89069        75.22533        -0.07324
H         40.33824        75.18531        -0.20434
H         42.78836        75.14503        -0.38151
H         45.20085        75.04659        -0.81218
H         47.70366        75.06359        -0.84966
H         50.15295        75.17706        -0.43678
H         52.62508        75.19830        -0.37783
H         55.06437        75.17549        -0.73635
H         57.49153        75.20523        -0.04886
H         59.97468        75.27884         0.26791
H         62.63820        75.21290         0.34422
H         65.02865        75.20113        -0.26442
H         67.48885        75.16879        -0.52312
H         22.56040        68.89743        -2.26499
H         21.74788        70.68903        -3.72959
H         21.95106        72.99888        -4.61537
H         25.03461        65.81901         1.67905
H         23.30467        67.18362        -0.27404
H         26.89549        60.84907         0.40606
H         25.67235        63.00198         0.40338
H         29.32906        56.54537         0.54017
H         28.10724        58.69871         0.42960
H         31.84869        52.23455        -0.11375
H         30.59360        54.34033         0.29691
H         34.86880        48.35244        -1.98338
H         33.07577        50.10155        -0.50656
H         36.73983        43.68184        -0.17715
H         35.50675        45.88334        -0.54283
H         39.23743        39.41254        -0.27477
H         38.00241        41.55308        -0.28197
H         41.70553        35.14562        -0.84751
H         40.45766        37.29542        -0.60151
H         45.14298        31.84727        -1.32414
H         42.97921        33.02014        -1.00957
H         47.29113        33.08433        -1.34370
H         48.54801        35.19561        -1.05047
H         49.78051        37.38315        -0.83792
H         50.99395        39.49759        -0.57934
H         52.21826        41.60773        -0.39642
H         53.47212        43.70952        -0.07884
H         54.72843        45.82227         0.13077
H         55.97755        47.96217         0.12505
H         57.23375        50.09287         0.33737
H         57.81642        52.80718         1.75602
H         59.73101        54.28230         0.13482
H         61.02312        56.53463        -0.14740
H         62.21275        58.63474        -0.42766
H         63.44809        60.76552        -0.71248
H         64.69540        62.90757        -0.82065
H         65.93497        65.07146        -0.77131
H         67.15946        67.19378        -0.73252
H         68.40175        69.31588        -0.79344
H         69.67263        71.44588        -0.74510
H         69.63942        73.91912        -0.69245
