         661
 CSIRO Nanostructure Databank - Neutral Graphene Oxide Data Set
C          6.08605        31.70659         1.74182
C          6.03701        33.06964         1.70683
C          8.71092        27.55206         1.75848
C          8.65993        28.94590         1.60991
C          7.40902        29.62170         1.67694
C          8.52480        31.76540         1.29515
C          7.33091        31.00421         1.55923
C          8.45775        33.16448         1.20064
C          7.21355        33.84991         1.42384
C          8.29748        36.03308         1.07270
C          7.16607        35.24769         1.42424
C          8.33170        37.39493         1.30591
C         11.03266        23.24507         1.11344
C         11.05208        24.66805         1.14360
C          9.91491        25.42462         1.59280
C         11.20323        27.55226         1.54875
C          9.91881        26.81566         1.64985
C         11.20303        29.08874         1.66997
C          9.86064        29.72088         1.38479
C         11.06196        31.92079         1.15227
C          9.79193        31.08702         1.20227
C         10.82216        33.27946         0.55582
C          9.62438        33.90460         0.75523
C         10.72823        36.10732         0.40462
C          9.42642        35.34558         0.33312
C         10.71638        37.50092         0.65988
C          9.50971        38.18598         1.05822
C         10.71201        40.35223         1.02788
C          9.52068        39.57043         1.21972
C         10.71780        41.73877         1.18272
C         13.32363        18.91343         0.78900
C         13.36084        20.33099         0.50802
C         12.22824        21.08479         0.87509
C         13.33993        23.17472         0.26172
C         12.17811        22.49523         0.74591
C         13.24030        24.60830        -0.03263
C         12.15807        25.35994         0.60789
C         13.45265        27.50708         0.24895
C         12.34172        26.78448         0.89610
C         13.50859        28.99123         0.36903
C         12.38132        29.78105         0.95716
C         13.29929        31.88649        -0.06974
C         12.24417        31.20151         0.54219
C         13.24991        33.30995        -0.32984
C         11.87664        33.96443        -0.28081
C         13.07690        36.13945        -0.30660
C         11.90830        35.43440         0.04217
C         13.03675        37.60923        -0.22982
C         11.90274        38.26595         0.46151
C         13.12441        40.41084         0.25063
C         11.91515        39.64256         0.64451
C         13.11388        41.88717         0.42464
C         12.01010        42.50345         1.26332
C         13.16271        44.68163         0.89884
C         11.96309        43.99004         1.04221
C         13.22323        46.10024         0.78295
C         15.90629        14.66539         0.42624
C         15.80292        16.07784         0.25775
C         14.56063        16.67282         0.61167
C         15.92261        19.01943        -0.37055
C         14.18004        17.97793         0.21433
C         15.81134        20.37804        -0.07073
C         14.56510        21.04529         0.11688
C         15.77115        23.25677        -0.12336
C         14.55657        22.49119         0.07395
C         15.77077        24.63144        -0.42725
C         14.47751        25.35549        -0.51583
C         15.69106        27.55832        -0.72386
C         14.47458        26.83810        -0.37444
C         15.71639        28.91994        -0.67716
C         14.41235        29.68143        -0.62951
C         15.65170        31.88153        -0.81286
C         14.52341        31.18750        -0.43697
C         15.66586        33.34170        -1.00228
C         14.36630        34.03671        -0.78969
C         15.21909        36.38165        -1.38199
C         14.20390        35.49738        -0.86396
C         15.51409        37.64336        -0.88421
C         14.32488        38.36257        -0.41277
C         15.66976        40.43233        -0.17033
C         14.45529        39.66980         0.30495
C         15.60998        41.88626        -0.05558
C         14.41062        42.59988         0.46142
C         15.70535        44.65173         1.04268
C         14.42059        43.92866         0.75663
C         15.69041        46.11344         0.69924
C         14.45102        46.81414         0.64304
C         15.70179        48.92811         0.36114
C         14.48333        48.22277         0.45071
C         15.75465        50.33939         0.15770
C         18.40444        10.41691         0.97379
C         18.38512        11.91628         0.87946
C         17.03603        12.44603         0.37662
C         18.29143        14.63698        -0.07462
C         17.07682        13.95255         0.22457
C         18.26048        16.07356        -0.16529
C         17.02498        16.79542        -0.06813
C         18.33227        18.90798        -0.01798
C         17.08944        18.22376        -0.13530
C         18.35016        20.35894        -0.03000
C         17.07314        21.09193         0.18352
C         18.38842        23.33399         0.02508
C         17.05772        22.59283         0.17842
C         18.23833        24.70525        -0.60438
C         16.98401        25.35910        -0.63614
C         18.14442        27.55625        -1.29248
C         16.84834        26.74898        -1.26967
C         18.21250        28.96254        -0.89528
C         16.97329        29.69868        -0.46175
C         18.15007        31.88785        -0.71228
C         16.91433        31.08069        -1.14165
C         18.20160        33.19350        -1.48375
C         16.89018        33.95304        -1.34795
C         18.14566        36.15079        -1.38690
C         17.06278        35.34648        -1.71141
C         18.13348        37.64445        -1.36080
C         16.78323        38.38754        -1.10419
C         18.12776        40.46743        -0.49386
C         16.83515        39.79200        -0.58513
C         18.16278        41.78353        -0.03536
C         16.95272        42.60006         0.02491
C         18.14763        44.65090         0.66052
C         16.95906        43.96671         0.56965
C         18.16390        46.08467         0.69601
C         16.92122        46.79950         0.61756
C         18.18829        48.90338         0.41684
C         16.94079        48.21508         0.46498
C         18.20446        50.33056         0.32449
C         16.96795        51.03029         0.14521
C         18.15148        53.18014         0.07216
C         17.00477        52.46186        -0.08464
C         18.19719        54.62361        -0.12143
C         20.80111         6.13747         0.91986
C         20.79349         7.53018         0.74274
C         19.61091         8.28062         0.95121
C         20.82408        10.39704         0.51119
C         19.57324         9.69155         0.78861
C         20.82479        11.77865         0.25732
C         19.49875        12.42718        -0.05029
C         20.75975        14.59409        -0.29200
C         19.54657        13.93625        -0.11372
C         20.73347        16.03125        -0.75651
C         19.49330        16.77588        -0.30936
C         20.82098        18.87681        -0.10036
C         19.53207        18.16595        -0.14781
C         20.80398        20.39739        -0.20681
C         19.50001        21.06550        -0.29207
C         20.74207        23.18718        -0.89674
C         19.40369        22.49378        -0.79065
C         20.71259        24.62854        -1.01213
C         19.43326        25.33281        -0.98189
C         20.69208        27.49834        -0.81807
C         19.44273        26.77474        -1.27007
C         20.66348        28.97396        -1.08991
C         19.44918        29.66524        -0.91361
C         20.62703        31.83231        -0.73524
C         19.45538        31.11823        -0.80768
C         20.60391        33.29568        -0.83865
C         19.41959        33.99138        -1.06702
C         20.64542        36.22173        -1.01248
C         19.46450        35.43942        -1.48452
C         20.64642        37.60227        -0.90104
C         19.39409        38.35813        -0.94266
C         20.65109        40.39441        -0.25436
C         19.38890        39.71151        -0.59440
C         20.68299        41.73826         0.17034
C         19.40482        42.41259         0.44004
C         20.67678        44.64222         0.72166
C         19.41135        43.89534         0.73924
C         20.65313        46.02531         0.69272
C         19.40096        46.77021         0.60800
C         20.70189        48.88716         0.18658
C         19.40706        48.16958         0.46364
C         20.63912        50.35402         0.58134
C         19.44838        51.04776         0.46945
C         20.69776        53.38013         0.41795
C         19.37317        52.54595         0.74224
C         20.54212        54.33991        -0.76958
C         19.35797        55.24022        -0.45492
C         20.68210        57.35399        -0.95111
C         19.53626        56.71039        -0.20533
C         20.78562        58.71177        -0.94720
C         23.29017         3.27658         0.62593
C         22.09601         3.92891         0.85538
C         23.22512         6.09062         0.04809
C         21.91263         5.31974         0.46408
C         23.24049         7.54436         0.25077
C         22.03433         8.24157         0.46592
C         23.27902        10.38786         0.41966
C         22.04810         9.67168         0.48369
C         23.26182        11.80692         0.36571
C         22.03809        12.49887         0.16766
C         23.23130        14.63921        -0.19884
C         22.02777        13.92755        -0.12292
C         23.25703        16.04685        -0.49487
C         22.03849        16.76763        -0.57393
C         23.23819        18.92702        -0.67480
C         22.05698        18.18303        -0.49619
C         23.23165        20.35475        -0.78387
C         22.01672        21.06857        -0.69024
C         23.19053        23.12881        -1.38577
C         21.93287        22.46102        -1.00000
C         23.15896        24.61979        -1.47535
C         21.89916        25.33108        -1.19679
C         23.19796        27.52467        -1.37863
C         21.86621        26.81177        -1.49113
C         23.24565        29.00736        -1.39129
C         21.95984        29.65566        -0.92970
C         23.17498        31.89917        -0.71559
C         21.93269        31.13125        -0.64055
C         23.06869        33.28735        -0.66311
C         21.84594        33.99502        -0.80872
C         23.20410        36.17638        -1.03947
C         21.88858        35.44204        -1.08017
C         23.15529        37.62447        -0.71735
C         21.91531        38.29935        -0.66055
C         23.10938        40.33699         0.09025
C         21.89755        39.68542        -0.31502
C         23.09248        41.70496         0.50500
C         21.89293        42.43296         0.50706
C         23.08606        44.56541         1.07938
C         21.91640        43.87868         0.80148
C         23.02249        46.02720         1.53423
C         21.88176        46.78595         0.88408
C         23.12592        48.93800         1.10330
C         21.90046        48.13717         0.73443
C         23.16687        50.27077         0.42345
C         21.93061        51.05587         0.58852
C         23.02903        52.89918        -0.75696
C         21.96078        52.53156         0.28197
C         23.05113        54.39636        -1.03764
C         21.85217        55.07568        -1.01842
C         23.09271        57.16844        -1.81981
C         21.79465        56.49336        -1.42774
C         23.14150        58.67076        -1.83442
C         21.98703        59.42725        -1.32166
C         23.40161        61.41859        -1.06136
C         22.12013        60.77845        -1.07713
C         24.46339         3.94646         0.21219
C         25.68307         6.07848        -0.10578
C         24.49688         5.34700         0.06823
C         25.69246         7.50256        -0.12782
C         24.47694         8.23403         0.15355
C         25.73827        10.33595         0.11179
C         24.51322         9.65398         0.28739
C         25.84846        11.76170         0.40692
C         24.50096        12.56726         0.57535
C         25.77332        14.57565        -0.35911
C         24.50764        14.09209         0.41134
C         25.74453        16.08402        -0.52966
C         24.50212        16.74451        -0.59576
C         25.74638        18.93447        -0.90900
C         24.46648        18.16654        -1.10279
C         25.73579        20.33531        -0.98332
C         24.48988        21.07286        -1.00719
C         25.73080        23.22092        -1.27580
C         24.49621        22.45724        -1.19054
C         25.74184        24.65640        -1.35923
C         24.42571        25.38434        -1.15455
C         26.06700        27.79011        -1.34113
C         24.27133        26.76460        -1.74498
C         25.84695        29.06115        -0.84099
C         24.57667        29.77681        -1.16177
C         25.52723        31.79593         0.24717
C         24.56955        31.28417        -0.85971
C         25.31862        33.30699         0.38655
C         24.27462        34.03069        -0.37988
C         25.65181        36.07052        -0.43695
C         24.36080        35.37988        -0.56958
C         25.65797        37.57893        -0.39237
C         24.35872        38.29192        -0.33933
C         25.55272        40.18495         0.83061
C         24.34025        39.61010         0.11034
C         25.63074        41.68131         0.75547
C         24.33650        42.34329         0.98792
C         25.65211        44.51634         1.17292
C         24.34897        43.82681         1.28555
C         25.67922        45.98033         1.31612
C         24.37557        46.75833         1.44092
C         25.59493        48.79415         0.63589
C         24.40171        48.15551         0.98866
C         25.58771        50.14668         0.15908
C         24.37453        50.89193         0.10294
C         25.52357        52.93942        -0.63870
C         24.36349        52.28120        -0.39788
C         25.55807        54.19846        -1.47502
C         24.30684        55.05679        -1.34686
C         25.61597        57.12738        -1.77874
C         24.34981        56.40626        -1.65586
C         25.69469        58.48505        -1.78730
C         24.49867        59.35523        -1.80422
C         24.55498        60.72856        -1.29752
C         26.86360         8.21962        -0.42682
C         28.03690        10.38471        -0.72104
C         26.89398         9.63583        -0.35209
C         28.08594        11.79276        -0.60885
C         27.04359        12.49323         0.01475
C         28.43456        14.69425        -0.13738
C         27.08286        13.98487         0.30926
C         28.19511        15.99615        -0.93227
C         26.94497        16.77184        -0.79659
C         28.18886        18.91050        -1.12816
C         26.97406        18.20385        -0.94820
C         28.21850        20.32598        -1.12736
C         26.97186        21.06718        -1.07382
C         28.23692        23.18308        -1.29837
C         26.95027        22.47019        -1.18857
C         28.23621        24.68235        -1.24883
C         26.94510        25.41829        -1.17521
C         28.16911        27.40308        -0.19428
C         27.01446        26.81109        -0.90216
C         28.07121        28.79127         0.38417
C         26.71007        29.54093         0.34022
C         28.05021        31.62608         0.83358
C         26.84156        31.06793         0.44834
C         28.19731        33.02446         1.22414
C         26.38792        34.17537         0.86361
C         28.02024        36.04354         0.53896
C         26.72648        35.36875         0.29724
C         28.17886        37.44223        -0.10239
C         26.89282        38.21847         0.10214
C         28.09362        40.23342         0.79905
C         26.87616        39.52044         0.53997
C         28.09950        41.64367         0.85234
C         26.82325        42.36589         0.82676
C         28.09894        44.52489         0.84672
C         26.83359        43.82059         0.95632
C         28.13702        45.94462         0.82807
C         26.90612        46.70616         0.93053
C         28.10900        48.85331         0.67184
C         26.85802        48.07285         0.71813
C         28.12385        50.19046         0.10313
C         26.83482        50.75696        -0.43808
C         28.07960        53.02248        -0.41653
C         26.80551        52.27171        -0.29366
C         28.00196        54.42540        -0.90358
C         26.85334        54.97513        -1.34242
C         26.87216        56.32601        -2.00538
C         29.27465        12.49932        -1.06053
C         30.71667        14.49505        -1.34555
C         29.42176        13.83385        -0.90969
C         30.74425        15.97698        -1.04440
C         29.46305        16.69378        -1.29683
C         30.62357        18.84301        -0.70061
C         29.48728        18.19851        -1.47000
C         30.70115        20.30706        -0.85253
C         29.48042        21.01674        -1.10100
C         30.67722        23.13221        -0.77699
C         29.50235        22.44893        -1.02703
C         30.61604        24.54433        -0.25526
C         29.52728        25.38217        -0.89972
C         30.66573        27.40752         0.19606
C         29.49950        26.80505        -0.46870
C         30.60517        28.77924         0.56109
C         29.35647        29.50583         0.56351
C         30.54829        31.60060         0.98430
C         29.34548        30.90827         0.78723
C         30.60627        33.07694         1.24012
C         29.31242        33.78452         0.96213
C         30.50599        35.88448         0.13959
C         29.28765        35.26465         0.84535
C         30.57310        37.37216         0.48755
C         29.40788        38.08055         0.49800
C         30.63370        40.19569         0.93605
C         29.34345        39.44541         1.12125
C         30.61207        41.66956         1.23126
C         29.31780        42.36715         0.87300
C         30.53842        44.48443         0.45950
C         29.32230        43.78782         0.74838
C         30.54114        45.86861         0.30500
C         29.36973        46.60914         0.59802
C         30.65242        48.76431         0.16618
C         29.44823        48.06852         0.66819
C         30.57412        50.18049        -0.02617
C         29.34161        50.84589        -0.13451
C         29.33054        52.22772        -0.75148
C         31.88261        16.62184        -0.70697
C         33.13105        18.83605        -0.31103
C         31.88684        18.07283        -0.40699
C         33.14058        20.22905        -0.35321
C         31.91847        20.95235        -0.65212
C         33.22801        23.14957        -0.40348
C         31.95999        22.41442        -0.77572
C         33.13492        24.56461         0.03352
C         31.92790        25.26802        -0.06197
C         33.04592        27.33794         0.70851
C         31.87107        26.67215         0.27550
C         33.05180        28.73954         0.90890
C         31.82697        29.43750         0.86599
C         33.09713        31.59683         0.85232
C         31.83184        30.87242         1.28012
C         33.06496        33.01483         0.72570
C         31.83313        33.71368         0.68036
C         33.08496        35.91887         0.58436
C         31.81764        35.13473         0.34092
C         33.03455        37.38375         0.77088
C         31.84144        38.05452         0.74407
C         33.09476        40.22979         0.87475
C         31.81845        39.51630         0.84799
C         33.06076        41.67986         0.77257
C         31.85958        42.34729         0.73323
C         33.07537        44.52047         0.38898
C         31.80401        43.72525         0.13966
C         33.03929        45.87938         0.22343
C         31.77402        46.54277        -0.26635
C         31.78073        48.04058        -0.14502
C         34.34755        20.96193        -0.05952
C         35.56226        23.06255         0.44165
C         34.40239        22.35072         0.02851
C         35.54159        24.45486         0.65848
C         34.31004        25.16706         0.55822
C         35.54359        27.30656         1.31372
C         34.23272        26.55072         1.02088
C         35.52374        28.75673         1.06700
C         34.32848        29.45149         0.97587
C         35.54103        31.62940         0.63514
C         34.32077        30.90575         0.80535
C         35.52496        33.04288         0.71789
C         34.30634        33.72919         0.73596
C         35.51673        35.92788         1.45217
C         34.26475        35.16692         1.08293
C         35.47578        37.46148         1.56982
C         34.37398        38.06971         0.66471
C         35.56335        40.27282         0.90197
C         34.29836        39.56096         0.86008
C         35.54599        41.67421         0.79111
C         34.32932        42.40363         0.67321
C         34.29811        43.80053         0.60248
C         36.75906        25.18800         0.96661
C         38.08972        27.26122         1.49274
C         36.79656        26.53742         1.17523
C         38.07585        28.74956         1.15791
C         36.81072        29.39951         0.71299
C         38.12165        31.63256         0.49784
C         36.80850        30.89325         0.41980
C         38.10758        33.13288         0.60681
C         36.77452        33.85191         0.70353
C         37.99612        35.95592         1.21482
C         36.78582        35.23939         1.19438
C         37.98232        37.38787         1.25900
C         36.79761        38.13500         1.23809
C         36.77433        39.52655         1.01561
C         39.21677        29.46176         1.32212
C         40.44906        31.70095         1.55383
C         39.34490        30.89640         0.97536
C         40.43108        33.05642         1.57209
C         39.28629        33.84206         1.14353
C         39.23718        35.21372         1.27659
O         17.02916        21.85461         1.45630
O         24.82190        32.34304         1.38151
O         22.04038        30.13410         0.48259
O         25.31818        27.35528        -2.44845
O         37.51850        33.74902        -0.57439
O         19.33656        42.90056         1.83645
O         20.99186        19.70933         1.08718
O         25.18614        46.47227         2.63171
O         30.87056        18.40175         0.65325
O         32.74950        35.47897        -0.77515
O         27.49259        52.78467         0.90313
O         34.70869        26.81144         2.39813
O         15.99441        35.89064        -2.42070
O         29.14876        15.08073         1.00694
O         27.97315        27.58858         1.25790
O         13.49888        24.88472        -1.48016
O         28.91675        48.66292         1.88148
O         25.91558        36.83790        -1.65988
O         28.60717        36.02978         1.88789
O         23.72930        59.21098        -3.05936
O         29.84230        26.42202        -1.85722
O         19.14156        52.64323         2.12543
O         22.33625        52.09700         1.60093
O         23.14224        23.83002        -2.70510
O         22.28462         5.62010        -0.93312
O         32.89914        22.93707        -1.81641
O         12.26475        27.00284         2.38274
O         39.11375        31.16886        -0.45883
O         28.67629        15.97922        -2.33639
O         23.97995        29.61181        -2.49748
O         24.25097        42.83996         2.38512
O         16.17076        42.56409        -1.23007
O         22.17688        56.65240        -2.84544
O         34.64624        35.34273         2.49938
O         12.83967        41.30216        -0.87986
O         14.83577        18.40568        -0.97652
O         18.91634        27.25634        -2.52954
O         13.63580        29.51210         1.72191
O         27.13531        33.63612         1.89961
O         36.78814        29.91738        -0.66504
O         25.25433        12.12363         1.70659
O         17.38785        38.29482        -2.43159
O         13.31914        38.34186        -1.48380
O         28.34726        23.98230        -2.53811
O         22.65578        35.77551        -2.33778
O         20.23535        53.55575        -1.94342
H         20.35569        54.12116        -2.73449
O         19.83489        56.82615         1.20727
H         20.27646        55.97883         1.48671
O         30.20809        35.67976        -1.26044
H         31.03587        35.85477        -1.76188
O         22.60184        52.24102        -1.98330
H         23.28102        52.43032        -2.66688
O         20.88826        48.87960        -1.27646
H         20.16132        49.40474        -1.67481
O         25.68324        13.99360        -1.68429
H         26.21273        14.53822        -2.30509
O         31.76119        43.51413        -1.33122
H         32.58812        43.04708        -1.58038
O         15.79753        44.60189         2.52497
H         16.62525        45.06137         2.78574
O         17.02457        29.89588         0.98988
H         16.92233        29.02604         1.43085
O         20.76938        27.35120         0.62066
H         21.37109        28.04354         0.97501
O         25.30345        39.88702         2.25257
H         24.79784        40.63561         2.64090
O         11.40723        29.36904         3.08896
H         12.22794        28.88232         3.33956
O         18.56274        12.45698         2.21491
H         19.37408        12.06401         2.60001
O         24.48651        14.67198         1.72838
H         25.35077        14.43343         2.15875
O         25.14871        31.88883        -2.05551
H         24.75513        31.42820        -2.83226
O         16.01283        12.05611         1.29087
H         16.34133        12.27849         2.18886
O         13.78087        29.50980        -1.93091
H         14.44810        29.72958        -2.61699
O         24.34992        18.02788        -2.57886
H         24.32739        18.93372        -2.95631
O         29.75735        18.47231        -2.87041
H         29.19032        17.86435        -3.39408
O         29.33302        52.03812        -2.18519
H         29.27347        52.91792        -2.61372
O         30.65714        41.76032         2.70574
H         30.10858        41.01870         3.05537
O         16.46974        26.48129        -2.64671
H         17.29919        26.52724        -3.18077
O         16.91585        30.78027        -2.55048
H         17.30386        31.54792        -3.03957
O         20.90897        54.24228         1.55494
H         20.35140        53.80798         2.27516
O         30.08617        24.38091         1.12189
H         30.78139        23.96540         1.67559
O         30.75603        33.26836         2.74138
H         29.85963        33.23265         3.14361
O         31.94763        30.85059         2.75463
H         31.69672        31.76044         3.06545
O         26.81646        50.45891        -1.87135
H         27.63021        50.85964        -2.26258
O         21.57454        26.89803        -2.92106
H         22.24815        26.37997        -3.41140
O         18.85136        22.41385        -2.14031
H         19.57613        22.19880        -2.76432
O         14.67975        39.34622         1.71118
H         14.64390        40.17517         2.23511
O         25.97997        29.19061         1.54201
H         26.37969        28.35651         1.88808
O         19.11961        11.97499        -1.38898
H         19.86918        12.15916        -1.99333
O         11.44260        32.14322         2.55308
H         11.50056        31.24799         2.97971
O         27.01226        14.14862         1.72921
H         27.90912        14.55769         1.96314
O         12.50465        42.29287         2.65028
H         11.95847        42.84582         3.24863
O         11.36603        33.87259        -1.67352
H         12.02028        34.31966        -2.25402
O         17.99350        32.31256         0.66060
H         17.80465        31.51472         1.20929
O         30.88488        14.30687        -2.76250
H         30.13813        14.77815        -3.19589
O         19.67834        35.35775        -2.97705
H         20.64464        35.44822        -3.14962
O         35.18692        37.80503         2.93550
H         34.74418        37.02682         3.34804
O         39.20775        26.63159         0.86683
H         39.17369        26.82350        -0.09280
O         22.67493        45.95021         2.93742
H         23.52157        45.90357         3.44063
O         34.84237        37.81504        -0.69208
H         34.12330        38.04015        -1.31882
O          9.03548        35.33987        -1.07405
H          9.72748        34.81862        -1.55495
O         25.53590        53.72225        -2.86573
H         25.88566        54.46235        -3.42165
O         28.44329        37.39552        -1.51703
H         27.62473        37.07431        -1.97011
O         22.99748        49.24257         2.54826
H         22.85312        50.20811         2.66149
O         18.39385        32.93624        -2.90824
H         18.72395        33.78253        -3.31018
O         24.35314        25.63528         0.29678
H         24.53272        24.79283         0.76629
O         20.57446        15.94649        -2.23125
H         19.74611        15.44937        -2.40539
O         18.94174        23.55597         1.33397
H         18.53814        22.88585         1.93585
O         31.73494        46.28899        -1.71683
H         31.69831        45.30408        -1.83193
O         26.96352        56.07625        -3.43291
H         26.66423        56.88343        -3.90296
O         29.24740        39.21734         2.58604
H         28.61311        38.48091         2.73505
H          5.17749        31.12046         1.94262
H          5.08625        33.59690         1.87279
H          7.76898        26.99756         1.88285
H          6.49950        29.03661         1.87827
H          6.24256        35.75422         1.74569
H          7.45465        37.88793         1.75389
H         10.14133        22.71514         1.48003
H          8.97194        24.88725         1.77311
H          8.59255        40.08683         1.50759
H          9.78380        42.25070         1.46362
H         12.60666        18.57518         1.55205
H         11.34215        20.55824         1.25902
H         11.00751        44.53386         1.09295
H         12.28158        46.66990         0.78998
H         15.00390        14.10497         0.71340
H         13.86586        16.07372         1.21987
H         13.53518        48.77649         0.37777
H         14.81418        50.89728         0.03685
H         17.48140         9.90199         1.28079
H         16.80334        11.98113        -0.61529
H         16.08336        52.95390        -0.43361
H         17.28892        55.21597         0.07797
H         19.92813         5.64654         1.37529
H         18.67950         7.75034         1.19795
H         18.58499        57.27180        -0.40156
H         19.95552        59.30451        -0.53232
H         23.36405         2.20657         0.86871
H         21.27390         3.41452         1.37345
H         23.45219        62.46637        -0.73261
H         21.24514        61.35227        -0.73889
H         25.40357         3.38187         0.13931
H         26.63416         5.54061        -0.23370
H         26.68500        58.96654        -1.83712
H         25.53660        61.18835        -1.11275
H         27.77425         7.67718        -0.71891
H         28.91528         9.85488        -1.11855
H         28.93439        55.01520        -0.93036
H         27.77624        56.91384        -1.67872
H         30.07181        11.90719        -1.53525
H         31.58346        13.99273        -0.84522
H         31.49136        50.71994        -0.30650
H         30.25593        52.79723        -0.45443
H         32.82084        16.06034        -0.57999
H         34.08087        18.28986        -0.20679
H         33.96846        46.46818         0.27379
H         32.67295        48.56783        -0.51730
H         35.24394        20.38038         0.20520
H         36.49518        22.50540         0.61496
H         36.49632        42.22930         0.80267
H         35.23594        44.37075         0.68264
H         37.70906        24.63189         0.94907
H         38.25213        27.15871         2.60400
H         38.94539        37.91495         1.17304
H         37.73081        40.06002         0.89694
H         40.11693        28.94506         1.69141
H         41.31887        31.16051         1.95643
H         41.29162        33.60355         1.98570
H         40.14550        35.75947         1.57471
