         598
 CSIRO Nanostructure Databank - Neutral Graphene Oxide Data Set
C         24.46946        69.43554         4.51677
C         24.56343        70.77777         4.88714
C         23.80458        71.33901         5.95187
C         25.04711        73.44657         5.84830
C         24.03159        72.64412         6.38822
C         26.23415        65.34990         2.25757
C         26.33211        66.71327         2.62920
C         25.36886        67.39391         3.38258
C         26.49607        69.57148         3.14233
C         25.43799        68.80552         3.66307
C         26.55230        71.03372         3.26803
C         25.51079        71.67351         4.19760
C         26.94858        73.69624         4.28023
C         25.85782        72.97805         4.78834
C         28.16574        61.20651         0.46214
C         28.22519        62.61160         0.61049
C         27.19291        63.30583         1.28190
C         28.35033        65.44930         0.93264
C         27.24396        64.69787         1.50657
C         28.44017        66.86041         1.17972
C         27.55639        67.43010         2.22209
C         28.47586        69.77133         1.59446
C         27.62606        68.90527         2.49435
C         28.84428        71.02052         2.37252
C         27.84824        71.73002         3.09567
C         29.03077        73.98773         3.02079
C         27.97972        73.12122         3.46713
C         30.50363        56.92438        -0.36980
C         30.47689        58.35963        -0.38457
C         29.26317        59.07984        -0.17180
C         30.31470        61.25584        -0.74979
C         29.20951        60.48606        -0.15390
C         30.43792        62.70286        -0.53045
C         29.37487        63.35463         0.12239
C         30.44841        65.53149        -0.42685
C         29.37487        64.77848         0.24906
C         30.47523        67.02489        -0.22633
C         29.47702        67.63467         0.66220
C         30.82922        69.67595         0.69525
C         29.66582        69.01344         1.03392
C         30.98577        71.08403         1.13024
C         30.14803        71.45899         2.27960
C         31.31275        74.07449         1.81632
C         30.34212        73.55963         2.65278
C         32.82915        52.68401        -1.24467
C         32.87144        54.04844        -0.93528
C         31.68777        54.79673        -0.77032
C         32.98518        56.87294        -0.31894
C         31.68574        56.18523        -0.48064
C         32.98413        58.42974        -0.40031
C         31.68384        59.07589        -0.58838
C         32.87935        61.28401        -0.96037
C         31.63626        60.47375        -0.96826
C         32.79823        62.73092        -1.28771
C         31.64194        63.39585        -0.93820
C         32.82028        65.63909        -1.45094
C         31.80192        64.86701        -0.59501
C         32.70497        67.09932        -1.36473
C         31.72735        67.72812        -0.53347
C         32.94804        69.85942        -0.57906
C         31.85679        69.07737        -0.13098
C         33.23017        71.19252         0.00381
C         32.14368        71.92942         0.72655
C         33.52856        74.03719         0.61029
C         32.54148        73.24667         1.45569
C         35.23638        48.37213        -1.25671
C         35.21212        49.73367        -1.80677
C         33.98725        50.53819        -1.64825
C         35.23950        52.66993        -1.86181
C         34.00208        51.91200        -1.53950
C         35.33833        54.06211        -1.40579
C         34.21697        54.67818        -0.61597
C         35.43149        56.89733        -0.75858
C         34.23174        56.19493        -0.66374
C         35.42952        58.37556        -0.88348
C         34.21618        59.06750        -0.87830
C         35.25574        61.21752        -1.84576
C         34.18146        60.54638        -1.04957
C         35.17332        62.71726        -2.20631
C         34.11966        63.49349        -1.35858
C         35.24161        65.57145        -2.24765
C         33.97873        64.95385        -1.83174
C         35.34690        66.88603        -2.70748
C         33.56434        67.99558        -2.03608
C         34.76546        70.19044        -2.21789
C         33.76907        69.34490        -1.61792
C         35.06791        71.47331        -1.73075
C         34.36189        72.00118        -0.54207
C         35.54114        74.17730        -0.82369
C         34.42342        73.46549        -0.26563
C         37.54548        44.27380         0.08936
C         37.51389        45.66312        -0.08919
C         36.38981        46.32192        -0.61225
C         37.69335        48.42558        -0.87867
C         36.41448        47.70855        -0.94109
C         37.72333        49.86312        -1.27825
C         36.53926        50.43471        -2.01363
C         37.83830        52.67491        -2.27079
C         36.52072        51.93116        -2.19031
C         37.72807        54.14367        -2.07881
C         36.53617        54.74464        -1.51510
C         37.91076        56.61837        -0.84090
C         36.62713        56.10752        -1.03664
C         37.89722        58.68833        -0.87663
C         36.62720        59.14612        -1.20364
C         37.79282        61.22318        -2.19230
C         36.53318        60.44399        -1.93473
C         37.75030        62.72371        -2.11133
C         36.52309        63.41926        -2.12079
C         37.73924        65.55441        -2.18994
C         36.50463        64.83830        -2.15739
C         37.77042        66.98088        -2.31522
C         36.56218        67.65389        -2.68799
C         37.79779        69.79582        -2.72154
C         36.61446        69.04141        -2.93908
C         37.86235        71.21615        -2.85727
C         36.06185        72.30737        -2.28434
C         37.72642        74.14605        -2.04565
C         36.43123        73.56197        -1.71650
C         40.04095        40.04006         0.28814
C         39.94758        41.40999         0.60336
C         38.76948        42.14218         0.41970
C         39.88337        44.29306         0.84540
C         38.72063        43.57281         0.50916
C         39.92337        45.76211         0.79489
C         38.68140        46.49254         0.29975
C         40.06790        48.59554        -0.12374
C         38.78634        47.85810        -0.27616
C         40.26067        49.89619        -0.82599
C         39.03248        50.61114        -1.25998
C         40.46491        52.61804        -1.73111
C         39.16821        51.93072        -1.98021
C         40.68068        53.93341        -2.15160
C         38.83664        54.96423        -2.25774
C         40.32062        56.90336        -1.55257
C         39.06919        56.17576        -1.53886
C         40.29333        58.34497        -1.51732
C         39.11516        59.10844        -1.47652
C         40.28593        61.26067        -1.59127
C         39.08420        60.50085        -1.99178
C         40.23018        62.75874        -1.68790
C         38.97176        63.44225        -2.05899
C         40.20434        65.60341        -1.94054
C         38.98492        64.86074        -2.09031
C         40.19313        67.00992        -1.82467
C         38.96490        67.71195        -2.10632
C         40.12315        69.89889        -1.90211
C         38.97134        69.13315        -2.24318
C         40.14261        71.30502        -2.00879
C         38.94760        71.98656        -2.43794
C         40.16468        74.21237        -2.51499
C         38.86829        73.44602        -2.34719
C         42.57396        35.99649        -0.79913
C         42.51235        37.27965        -0.24135
C         41.30640        37.99270        -0.09896
C         42.48377        40.02539         0.72635
C         41.27115        39.34027         0.34650
C         42.46348        41.41027         1.11593
C         41.13569        42.07514         1.18261
C         42.35769        44.34846         1.47520
C         41.07353        43.59105         1.32713
C         42.41223        45.74000         0.95505
C         41.25048        46.40948         0.66680
C         42.63043        48.34974        -0.20983
C         41.30031        47.85780         0.32368
C         42.69985        49.84386        -0.37229
C         41.49635        50.52591        -0.81694
C         42.81187        52.62685        -1.03574
C         41.59379        51.94141        -1.16997
C         42.85092        54.05569        -1.15282
C         41.69631        54.75498        -1.61064
C         42.80934        56.90068        -1.33290
C         41.60935        56.19857        -1.59521
C         42.83151        58.36983        -1.51673
C         41.55708        59.08398        -1.95245
C         42.67187        61.29027        -1.16941
C         41.55859        60.55376        -1.54390
C         42.71805        62.71798        -1.28358
C         41.55331        63.40469        -1.84619
C         42.69376        65.67822        -1.49050
C         41.51425        64.95296        -1.93009
C         42.62153        67.06604        -1.27610
C         41.37924        67.72856        -1.50046
C         42.53944        69.97634        -1.04546
C         41.27192        69.18484        -1.31697
C         42.55805        71.40523        -1.40101
C         41.36172        72.05899        -1.77277
C         42.59053        74.16050        -1.94502
C         41.39878        73.46703        -2.04496
C         45.03714        33.55972        -2.26052
C         43.83154        34.10582        -1.82221
C         45.03797        36.05468        -1.00474
C         43.80850        35.37128        -1.17746
C         45.05338        37.32511        -0.26554
C         43.76294        37.95642         0.16176
C         44.94401        40.06546         0.78358
C         43.74908        39.39243         0.54185
C         44.94745        41.34242         1.58390
C         43.63807        42.09770         1.40084
C         44.91187        44.28314         1.44132
C         43.63563        43.55837         1.60442
C         44.91076        45.67102         1.26010
C         43.71367        46.40334         0.89991
C         45.06198        48.44867         0.53028
C         43.81505        47.72867         0.49063
C         45.11809        49.78967         0.12819
C         43.93712        50.46938        -0.32631
C         45.24457        52.62940        -0.31864
C         44.10153        51.84699        -0.91796
C         45.27272        54.07409        -0.62498
C         44.02048        54.80427        -0.87036
C         45.17859        56.94536        -0.47199
C         44.01550        56.21777        -0.94786
C         45.04569        58.39255        -0.22375
C         43.98164        59.14072        -0.95929
C         45.13235        61.35796        -0.62436
C         43.82337        60.59141        -0.49258
C         45.08933        62.83840        -0.58541
C         43.91374        63.46065        -1.04899
C         45.17228        65.69028        -0.84193
C         43.94355        64.91591        -1.32451
C         45.05132        67.15812        -0.68270
C         43.83157        67.82356        -0.94673
C         45.00722        69.98746        -0.83547
C         43.81299        69.24422        -0.94767
C         45.00806        71.41802        -0.99808
C         43.79290        72.10169        -1.33630
C         45.03494        74.20933        -1.51444
C         43.81684        73.51122        -1.59634
C         46.24352        34.24497        -2.09705
C         47.49158        36.24286        -1.29083
C         46.26755        35.51753        -1.47322
C         47.51862        37.55572        -0.78686
C         46.23346        38.21288        -0.46813
C         47.48939        40.21118         0.50127
C         46.20837        39.58742         0.19954
C         47.56490        41.35448         1.51810
C         46.23888        42.15775         1.49841
C         47.20130        44.36974         2.19179
C         46.14333        43.54939         1.67553
C         47.25015        45.76279         1.99220
C         46.14136        46.41286         1.35926
C         47.49447        48.47153         1.17404
C         46.24131        47.77139         1.02194
C         47.57286        49.84176         0.83829
C         46.46512        50.47977         0.01539
C         47.52943        52.74691         0.56826
C         46.36001        51.98880         0.15436
C         47.59927        54.10650         0.36646
C         46.52261        54.85544        -0.31590
C         47.52507        57.07349         0.32559
C         46.39420        56.32726        -0.13640
C         47.51917        58.48635         0.44349
C         46.24725        59.18879         0.21164
C         47.49162        61.38572         0.36268
C         46.34978        60.63220        -0.17149
C         47.33586        62.83121         0.57246
C         46.21318        63.57340        -0.07810
C         47.32248        65.78161         0.43747
C         46.21657        64.96647        -0.10360
C         47.41699        67.19879         0.02304
C         46.22459        67.88866        -0.37111
C         47.40377        70.06242        -0.28405
C         46.22687        69.31583        -0.51808
C         47.43955        71.46569        -0.52102
C         46.22506        72.13492        -0.89299
C         47.47212        74.24154        -1.14431
C         46.24167        73.55037        -1.17191
C         48.66595        38.34928        -0.69431
C         49.87082        40.37464        -0.08627
C         48.65353        39.64911        -0.09155
C         49.96188        41.64802         0.51126
C         48.86876        42.14619         1.31775
C         50.27400        44.13145         1.82240
C         49.14068        43.29292         2.04346
C         50.34401        45.46363         2.30359
C         48.40490        46.53391         2.31133
C         49.92008        48.49676         1.85657
C         48.63192        47.82212         1.78437
C         49.92388        49.90790         1.64583
C         48.72257        50.56396         1.20813
C         49.93442        52.80435         1.53720
C         48.65222        52.03641         1.23534
C         50.00935        54.22175         1.16654
C         48.85263        54.84850         0.55359
C         49.95754        57.07948         1.06487
C         48.81990        56.38228         0.46694
C         49.83902        58.52380         1.28455
C         48.65659        59.25096         0.77804
C         49.83602        61.48084         1.08270
C         48.63001        60.70399         0.79390
C         49.85833        62.85836         1.09565
C         48.58035        63.59631         1.04518
C         49.87825        65.80152         0.72783
C         48.59171        65.09483         0.92262
C         49.85738        67.20048         0.45736
C         48.61568        67.88818         0.23112
C         49.91959        70.12874         0.25669
C         48.58457        69.36182         0.22508
C         49.92185        71.53571        -0.21703
C         48.68047        72.18507        -0.49522
C         49.92198        74.27273        -0.94968
C         48.69014        73.58137        -0.85663
C         51.15163        42.39789         0.35381
C         52.44048        44.49950         0.71654
C         51.31205        43.67538         0.93594
C         52.51260        45.80766         1.27206
C         51.32462        46.36495         1.91054
C         52.40276        48.53990         2.00265
C         51.18908        47.81101         2.01601
C         52.42275        49.95076         1.86640
C         51.16817        50.65394         1.73644
C         52.42076        52.79713         1.61282
C         51.19509        52.05554         1.62969
C         52.40486        54.20441         1.58283
C         51.19490        54.93779         1.32780
C         52.37021        57.15531         1.47030
C         51.15298        56.39835         1.29417
C         52.38630        58.53182         1.42490
C         51.13657        59.30037         1.48524
C         52.39465        61.48357         0.95106
C         51.11981        60.73013         1.04467
C         52.41229        62.96302         1.01671
C         51.12255        63.66997         1.38956
C         52.32307        65.79368         0.72174
C         51.09298        65.10432         0.87708
C         52.32669        67.15226         0.37718
C         51.10452        67.90598         0.29991
C         52.39375        70.04445         0.09198
C         51.13094        69.31487         0.14461
C         52.42902        71.57011        -0.13893
C         51.13380        72.22082        -0.38793
C         52.39518        74.28919        -0.82028
C         51.14904        73.60835        -0.75699
C         53.69483        46.53451         1.35509
C         54.92693        48.56170         1.94631
C         53.69301        47.76692         2.21252
C         54.92367        49.94520         1.79989
C         53.65874        50.66744         1.79105
C         54.91582        52.77117         1.49025
C         53.68479        52.08084         1.65460
C         54.94330        54.19772         1.35360
C         53.68528        54.93103         1.66072
C         54.83801        57.09882         0.96553
C         53.65774        56.41877         1.57487
C         54.86796        58.54734         1.04951
C         53.67092        59.27072         1.42174
C         54.88812        61.50233         0.87457
C         53.67584        60.79203         1.27175
C         54.87828        62.90277         0.78901
C         53.60301        63.62299         0.93511
C         54.88166        65.76823         0.61165
C         53.62131        65.11937         1.14253
C         54.88841        67.11921         0.23509
C         53.59582        67.79773        -0.01360
C         54.88564        70.02184        -0.28433
C         53.62151        69.28583        -0.23341
C         54.86707        71.38738        -0.61663
C         53.68233        72.20205        -0.61633
C         54.81303        74.49631        -0.73684
C         53.65369        73.63797        -0.78504
C         56.14607        50.65152         1.65151
C         57.38407        52.74332         1.26450
C         56.18111        52.05847         1.46189
C         57.41856        54.16343         0.78152
C         56.11158        54.87328         1.05062
C         57.42326        57.02175         0.41549
C         56.09045        56.30061         0.68495
C         57.34367        58.48784         0.83021
C         56.06566        59.23708         0.58996
C         57.40433        61.43059         0.60276
C         56.10143        60.73894         0.59818
C         57.36445        62.88807         0.51884
C         56.11122        63.60184         0.65747
C         57.32430        65.77006         0.55177
C         56.10468        65.04763         0.60946
C         57.31175        67.17186         0.38804
C         56.10260        67.82976         0.08293
C         57.40511        69.99834        -0.29225
C         56.13422        69.20965        -0.55552
C         57.38149        71.40975        -0.65120
C         56.13914        71.91402        -1.05797
C         57.38093        74.48658        -0.66619
C         56.10921        74.06492        -1.06113
C         58.60800        54.99923         1.23475
C         59.85207        57.15251         1.14232
C         58.64662        56.35111         1.01720
C         59.89461        58.53415         0.96835
C         58.60355        59.27233         0.95732
C         59.85698        61.31327         0.14078
C         58.57567        60.72643         0.67603
C         59.83646        62.84570         0.13139
C         58.56663        63.56578         0.40813
C         59.90077        65.75013         0.66096
C         58.59214        65.01371         0.68392
C         59.87239        67.24490         0.54653
C         58.56158        67.96255         0.46475
C         59.84531        70.17506         0.24031
C         58.57027        69.37890         0.03550
C         59.81258        71.55044        -0.39564
C         58.57053        72.21573        -0.65411
C         59.80889        74.33536        -0.69477
C         58.56877        73.66940        -0.75803
C         61.09489        59.31407         0.99644
C         62.32000        61.44473         0.78456
C         61.11758        60.69193         0.73234
C         62.39663        62.83170         0.52614
C         61.14225        63.57147         0.24181
C         62.35421        65.70155         0.24945
C         61.16680        65.03962         0.39633
C         62.35281        67.13285        -0.12966
C         61.05631        67.92360        -0.05693
C         62.30508        70.00138        -0.40416
C         61.10538        69.38895        -0.10146
C         62.29489        71.46376        -0.68176
C         61.02591        72.21604        -0.53617
C         62.27124        74.34578        -0.54299
C         61.04683        73.64993        -0.66288
C         63.59128        63.58032         0.56779
C         64.79827        65.75877         0.37328
C         63.61826        64.98930         0.35178
C         64.81988        67.17481         0.21000
C         63.59522        67.89918        -0.10710
C         64.85792        69.99172        -0.39015
C         63.55924        69.26638        -0.34559
C         64.89138        71.48143        -0.58070
C         63.59368        72.23849        -0.76043
C         64.64358        74.36700         0.03525
C         63.52992        73.68988        -0.42839
C         65.99762        67.91480         0.41101
C         67.13865        70.07426         0.62949
C         66.03447        69.32085         0.23578
C         67.18060        71.50128         0.57264
C         66.10122        72.24170        -0.11169
C         66.96226        74.33110         1.08365
C         65.96603        73.73969         0.18617
C         68.18952        72.22003         1.20783
C         68.06513        73.61573         1.46633
O         56.11802        72.95200        -1.95546
O         33.09686        57.70704         0.87277
O         45.20405        58.82727         1.16511
O         60.51912        63.31125        -1.10008
O         36.75413        71.88519        -3.42642
O         47.57107        63.15256         1.99233
O         38.99412        46.42352         1.72864
O         57.82469        58.83179         2.15797
O         30.90530        72.03932        -0.03616
O         35.44311        69.71850        -3.35454
O         30.67600        72.29268         3.24243
O         39.84171        54.50509        -3.10930
O         38.65210        52.07838        -3.33107
O         28.34810        67.97463         3.35546
O         51.77479        60.91484        -0.26977
O         53.78594        60.18385         2.60053
O         49.12870        69.92628         1.46764
O         62.90755        71.84870        -1.97269
O         45.02514        65.28733        -2.25040
O         53.48280        68.36523        -1.39393
O         40.59257        48.69147         1.26974
O         46.27566        54.38187        -1.68435
O         29.95268        66.39432        -1.47665
O         42.94274        44.13118         2.79395
O         34.19959        67.54261        -3.19712
O         38.02268        57.66657         0.07819
O         43.96268        58.83719        -2.37247
O         45.99278        39.37733        -1.28668
O         52.56368        70.97485         1.20797
O         50.28186        58.99610         2.61249
O         41.75436        64.07812        -3.10857
O         49.33501        45.95007         3.16367
O         48.93728        52.53618         2.59398
O         34.53069        71.21207         0.70809
O         40.07233        62.09440        -0.38945
O         61.49618        67.32788        -1.31701
O         35.96764        49.72285        -3.12090
O         53.86341        55.78751         2.87539
O         59.32562        67.85346         1.74993
O         30.73845        60.79712        -2.06675
O         34.55458        63.60860        -0.02442
O         43.43326        60.57028         0.85171
O         33.74997        61.13745         0.21778
O         25.37239        71.72825         2.74514
O         55.13406        56.57274        -0.41235
O         38.57961        60.71978        -3.34078
O         46.08238        60.84382        -1.61863
O         49.19556        55.57384        -0.69297
O         35.56103        60.42185        -3.03843
O         59.33476        65.29856         1.94545
O         35.65461        52.40601        -3.25536
O         55.93972        59.94459        -0.68973
O         48.17996        43.76199         2.96296
O         38.05932        50.73743        -0.14167
O         65.18398        70.59177        -1.69857
O         44.59247        37.18720         1.12159
O         41.60486        69.64481         0.04518
O         47.66178        65.68833         1.87273
O         40.82284        42.70214         2.46397
O         66.54408        73.22993        -1.07807
O         59.85622        60.86759        -1.24859
H         60.28090        61.58879        -1.77290
O         33.25679        72.87627         2.65595
H         34.00328        72.29448         2.37996
O         34.48323        54.33184         0.79265
H         33.94239        54.92868         1.35362
O         53.72651        47.34024         3.62851
H         53.59112        48.13791         4.18240
O         40.32860        74.53511        -3.91306
H         40.35358        73.69685        -4.41876
O         41.53631        59.07138        -3.40343
H         42.46111        59.22822        -3.70268
O         27.63535        70.12464         0.46918
H         28.14855        70.70345        -0.13314
O         59.93799        70.46820         1.67648
H         59.75655        69.61525         2.14599
O         46.88070        50.27321        -1.37922
H         46.17149        50.67378        -1.94643
O         47.66383        40.74251         2.83838
H         46.74500        40.61615         3.18398
O         34.72041        62.80218        -3.57240
H         35.13726        62.05785        -4.06572
O         51.18589        63.79330         2.85557
H         50.30758        64.09626         3.17523
O         44.93704        40.91439         3.01933
H         44.08402        40.45463         3.18166
O         57.53750        54.08944        -0.68841
H         57.60937        55.01947        -1.02349
O         56.12952        68.95270        -2.00057
H         55.23386        68.59000        -2.21364
O         57.62086        56.97199        -1.02094
H         56.75223        57.18921        -1.43570
O         44.54944        51.59079        -2.31221
H         44.77074        52.46209        -2.71084
O         53.68117        65.31754         2.59277
H         52.91061        64.83444         2.98090
O         42.66769        47.81254        -1.58568
H         43.47568        48.16197        -2.01977
O         32.35180        64.87872         0.75271
H         33.23836        64.39412         0.70297
H         25.24105        74.44104         6.27524
H         27.10248        74.72484         4.64174
H         28.81588        75.06743         3.02415
H         31.14826        75.02957         1.29839
H         33.64380        75.10588         0.85124
H         35.74821        75.19738        -0.46719
H         37.82837        75.23055        -1.87424
H         40.09515        75.19219        -1.97714
H         42.60660        75.23986        -2.15718
H         45.05623        75.28790        -1.72975
H         47.49237        75.31198        -1.39753
H         49.91987        75.34147        -1.20993
H         52.37986        75.38121        -0.95392
H         54.65785        75.52716        -0.38445
H         57.49257        75.47925        -0.20518
H         59.81794        75.43506        -0.69979
H         62.24576        75.44188        -0.44692
H         64.53752        75.42056         0.33765
H         66.80839        75.35967         1.44041
H         23.70748        68.80294         4.99688
H         23.05352        70.71585         6.45823
H         23.42924        73.03955         7.21808
H         25.37064        64.76175         2.60438
H         24.48888        66.84039         3.74399
H         27.30995        60.65963         0.88514
H         26.33958        62.73299         1.67591
H         29.54197        56.38975        -0.38546
H         28.37887        58.51528         0.15974
H         31.85197        52.17675        -1.27909
H         30.72073        54.29536        -0.93277
H         34.28021        47.83548        -1.16045
H         33.06120        49.99410        -1.40474
H         36.65823        43.68616        -0.18894
H         35.46610        45.75214        -0.79073
H         39.14663        39.51142        -0.07391
H         37.87161        41.61649         0.06208
H         41.63326        35.48028        -1.04425
H         40.36383        37.51747        -0.40981
H         45.03838        32.57517        -2.74903
H         42.88975        33.56019        -1.97628
H         47.18385        33.79701        -2.44850
H         48.43396        35.77633        -1.61426
H         49.63283        37.94754        -1.03117
H         50.74777        39.95605        -0.60047
H         51.95271        41.98781        -0.27845
H         53.29916        44.10508         0.15427
H         54.61898        46.18316         0.87523
H         55.88925        48.02793         1.96881
H         57.08832        50.08359         1.64490
H         58.32935        52.17943         1.29193
H         59.50682        54.47973         1.60335
H         60.79646        56.61218         1.31489
H         62.04366        58.80334         1.22771
H         63.24633        60.91821         1.06535
H         64.54049        63.05780         0.76149
H         65.75760        65.24922         0.55121
H         66.90660        67.39940         0.75628
H         67.99634        69.55386         1.08302
H         69.03359        71.67468         1.65413
H         68.83286        74.09793         2.08803
