         276
 CSIRO Nanostructure Databank - Neutral Graphene Oxide Data Set
C        -11.26935         0.74118        -0.23582
C        -10.09788         1.57329         0.00407
C         -8.80486         0.93198         0.51473
C         -7.63957         1.53566        -0.26258
C         -6.36601         0.79514        -0.43986
C         -5.03220         1.53774        -0.65571
C         -3.89127         0.82987         0.10631
C         -2.63245         1.58315         0.43483
C         -1.38830         0.77670         0.87962
C         -0.05456         1.52967         0.69380
C          1.19990         0.70471         0.44864
C          2.44932         1.37323        -0.12871
C          3.82464         0.76141        -0.09119
C          4.88791         1.25556        -1.06668
C          6.26716         0.64600        -0.76081
C          7.45239         1.34844        -0.76879
C          8.80713         0.62724        -0.78015
C          9.89401         1.41583         0.11462
C         11.19439         0.63767         0.06657
C        -10.13551         2.92010        -0.20129
C         -8.90823         3.77414        -0.19324
C         -7.61263         3.04465        -0.26350
C         -6.33670         3.70031         0.17469
C         -5.05181         2.98360        -0.11314
C         -3.76952         3.76486        -0.41265
C         -2.51301         3.00376         0.00624
C         -1.33245         3.66839         0.00750
C         -0.05383         2.98072         0.35439
C          1.26335         3.63712         0.01119
C          2.38038         2.83487        -0.65910
C          3.74503         3.55391        -0.60059
C          4.95012         2.79400        -1.10030
C          6.25501         3.54338        -1.14060
C          7.51396         2.80109        -0.87823
C          8.67433         3.51623        -0.61525
C         10.02127         2.82420        -0.47708
C         -8.92684         5.21208         0.33893
C         -7.61442         5.95617         0.09931
C         -6.34714         5.19837         0.34909
C         -5.03077         5.90420         0.35678
C         -3.74460         5.18735         0.12865
C         -2.57133         5.86340         0.14719
C         -1.32782         5.13969        -0.39316
C         -0.07463         5.86562         0.13347
C          1.25929         5.12128        -0.07978
C          2.48223         5.81783        -0.61570
C          3.77663         5.05202        -0.59590
C          5.00894         5.83743        -0.97661
C          6.28742         5.06282        -1.03250
C          7.52124         5.71623        -0.52904
C          8.65932         4.94336        -0.42073
C         -7.57905         7.30069        -0.06874
C         -6.31018         8.06695        -0.24638
C         -4.99721         7.33844        -0.06311
C         -3.77553         8.09503         0.23232
C         -2.48936         7.35136         0.54449
C         -1.38518         8.08883        -0.29958
C         -0.05042         7.29497        -0.49066
C          1.27062         7.95452         0.20036
C          2.49283         7.30405        -0.48867
C          3.78741         8.04050        -0.33159
C          5.05590         7.29108        -0.57690
C          6.32388         7.84958        -0.05970
C          7.47804         7.09874        -0.10150
C         -6.23643         9.52478        -0.05804
C         -5.04092        10.16370         0.08886
C         -3.77645         9.46319         0.21594
C         -2.50712        10.22930         0.56660
C         -1.21200         9.51334         0.18371
C         -0.00750        10.14167         0.26439
C          1.29171         9.47374         0.15877
C          2.50318        10.07452         0.34387
C          3.75566         9.23506         0.61331
C          5.10310         9.92390         0.57567
C          6.25989         9.24653         0.35848
C        -11.26136        -0.61041        -0.17428
C        -10.07016        -1.38647         0.24051
C         -8.82058        -0.61075         0.55883
C         -7.50927        -1.36126         0.48998
C         -6.28817        -0.63865         0.01902
C         -5.05296        -1.32310        -0.55762
C         -3.85277        -0.68366         0.09932
C         -2.56485        -1.42389         0.19202
C         -1.27640        -0.61012         0.19406
C         -0.18931        -1.44671         0.89229
C          1.13008        -0.69871         0.99866
C          2.21765        -1.40987         1.37337
C          4.05932        -0.40339         0.56774
C          5.04785        -1.42456         0.18861
C          6.25924        -0.81998        -0.49941
C          7.52217        -1.51102        -0.11839
C          8.79511        -0.77229        -0.16576
C         10.06824        -1.53383        -0.10082
C         11.26559        -0.70937        -0.04174
C         -9.97671        -2.81646        -0.09202
C         -8.80909        -3.57975         0.06445
C         -7.54199        -2.90273         0.58771
C         -6.33446        -3.56089        -0.09383
C         -5.08247        -2.83400        -0.46675
C         -3.74985        -3.55818        -0.56700
C         -2.46811        -2.86068        -0.22319
C         -1.28463        -3.53729        -0.07364
C          0.03912        -2.80140         0.19964
C          1.05144        -3.64734         1.05713
C          2.36833        -2.88640         1.36218
C          3.74710        -3.54287         1.15796
C          5.13018        -2.75337         0.98878
C          6.28877        -3.62946         0.46476
C          7.50811        -3.01541        -0.20936
C          8.82127        -3.67301         0.16489
C         10.04918        -2.89300         0.06658
C         -8.80209        -4.96297        -0.17599
C         -7.54788        -5.76940        -0.43840
C         -6.30349        -5.05427         0.07714
C         -5.02647        -5.78775        -0.08420
C         -3.77567        -5.05559        -0.45888
C         -2.48203        -5.80590        -0.33498
C         -1.21892        -5.01475        -0.22691
C          0.06958        -5.73726         0.05121
C          1.29397        -4.96456         0.37220
C          2.56529        -5.68198         0.56200
C          3.73646        -4.99766         0.76033
C          4.99147        -5.67632         0.46803
C          6.28040        -4.99256         0.51461
C          7.57304        -5.77758         0.82004
C          8.82707        -4.99881         0.47089
C         -7.50126        -7.24964        -0.08019
C         -6.33787        -7.95032        -0.17669
C         -5.02923        -7.25531        -0.49150
C         -3.83814        -7.93448         0.20973
C         -2.54336        -7.19874         0.21177
C         -1.25616        -7.95578         0.40937
C          0.03420        -7.19820         0.41000
C          1.36489        -7.96303         0.42107
C          2.51700        -7.06551         0.00558
C          3.78337        -7.70439        -0.40569
C          4.94179        -6.80430        -0.31186
C          6.83344        -7.94914        -0.31222
C          7.65361        -7.28562         0.52953
C         -6.23245        -9.41272        -0.17055
C         -5.06318       -10.08846        -0.07505
C         -3.78631        -9.44987         0.42922
C         -2.44968       -10.05581        -0.03115
C         -1.26000        -9.41993         0.11475
C          0.09775       -10.15018         0.01326
C          1.26962        -9.24361        -0.47030
C          2.63036        -9.91948        -0.55287
C          3.92406        -9.21420        -0.19343
C          5.23036        -9.85156        -0.68057
C          6.49049        -9.36844        -0.54624
O          1.29036         7.59915         1.53336
O          1.53360         0.58277        -0.97633
O         -1.67988        -5.59994        -1.51980
O         -7.31127         0.93995        -1.55426
O          9.28124         0.58391        -2.06509
O         -8.17254         3.65383        -1.46985
O          6.02194        -7.11533        -1.12183
O         -3.40284        -7.22041         1.40354
O          2.84866        -7.20363        -1.43166
O          2.36265         6.65954        -1.78243
O          1.66710         4.44179         1.15600
O         -6.07401        -3.24997        -1.48774
O          4.03249         4.27740         0.63144
O          3.15231        -3.39322         2.48611
O          0.04359         2.51848         1.76237
O         -5.71824         5.62711         1.61653
O         -9.64559        -1.08225         1.65929
O         -0.66126        -7.47779         1.66889
O         -5.59791        -5.54773         1.24112
O          8.06100        -0.89093         1.11070
O          4.47842         8.22028        -1.58560
O         -5.53660         7.56563        -1.40746
O          5.52660         3.18363        -2.37679
O          0.94235        -5.23281        -1.04031
O         -3.70116         1.39455         1.41910
O         -6.51204        -0.83200         1.44003
O         -3.44375        -1.27381         1.35826
O         -5.60202         3.02645         1.22850
O         -3.78948        -4.39638        -1.76571
O          5.26594        -1.57963        -1.24886
O          5.67604         5.63674        -2.24379
O          3.35779        -0.69265         1.74314
O          3.63942         8.72489         1.96934
H          2.73200         8.31359         2.06851
O          7.55758        -5.76055         2.29071
H          7.50405        -4.82521         2.58391
O         -4.74682         1.54994        -2.06440
H         -5.58417         1.34300        -2.54146
O         -0.95272        -0.34373        -1.17748
H         -0.26208        -0.98204        -1.48576
O          4.48135         0.84784        -2.39275
H          5.05533         1.34147        -3.02373
O          9.40311         1.52928         1.43699
H          9.27124         0.63370         1.82031
O         -0.64899        -1.78458         2.21584
H         -1.07395        -0.98631         2.62549
O         -8.61565         1.38093         1.87256
H         -9.11454         0.76537         2.45554
O         -4.96657        -1.00037        -1.95836
H         -5.46878        -1.68782        -2.45343
O         10.64406         2.73908        -1.75106
H         10.19865         1.98330        -2.23867
O         -0.26244         5.95341         1.54330
H          0.48955         5.48069         1.98584
O          1.65441        -8.33978         1.77823
H          0.79389        -8.52586         2.22788
O         -7.46419        -3.23955         1.98309
H         -6.96299        -2.52841         2.44168
O         -1.97950         8.22861        -1.62057
H         -2.28085         7.33738        -1.91221
O         -3.72529         3.94494        -1.86161
H         -3.94180         3.07032        -2.28350
O          0.65565        -2.54499        -1.07605
H          0.73352        -3.40925        -1.55377
O          0.46245        -4.06762         2.29518
H          0.13678        -3.26656         2.77478
O         -1.53392         0.60387         2.29850
H         -1.35878         1.47882         2.71543
O          2.03366         2.77058        -2.05348
H          2.56485         2.05341        -2.47084
O         -2.27109         7.53204         1.95097
H         -1.42874         7.07349         2.19643
O          7.34670        -3.31418        -1.62825
H          6.50089        -2.90330        -1.92662
O         -2.49506        10.40899         1.99534
H         -2.44648         9.50524         2.38948
O         -9.18198         5.18721         1.74919
H         -8.36285         4.91930         2.21665
O         -4.85560        -7.32160        -1.92795
H         -4.18632        -6.65966        -2.21139
O          0.85219        -8.84754        -1.79987
H          1.53434        -8.22022        -2.15027
O         -7.43529        -5.74541        -1.90242
H         -6.66846        -6.30939        -2.16315
O          4.03463        -9.42205         1.25516
H          3.16841        -9.17663         1.67992
O          0.42220       -10.66834         1.30331
H         -0.32702       -11.21368         1.61978
O         -1.36259         5.23051        -1.82623
H         -2.17188         4.74202        -2.13483
O          5.54399        -2.40037         2.32122
H          4.74994        -2.44830         2.90602
O          0.15705         7.19129        -1.85955
H         -0.35871         7.89903        -2.31540
O         -3.79919        -9.70500         1.85815
H         -3.51918        -8.86631         2.29937
H         12.24586        -1.20991        -0.05312
H         12.12470         1.22479         0.11721
H         10.68676         3.43687         0.18812
H          9.59293         5.41541        -0.07737
H          8.42004         7.54202         0.25742
H          7.21843         9.77760         0.47214
H          5.15040        10.98246         0.87502
H          2.56649        11.17085         0.44082
H          0.00612        11.20628         0.55134
H         -2.53591        11.25012         0.10648
H         -5.02932        11.25805         0.20295
H         -7.17527        10.09679        -0.01196
H         -8.52428         7.86348        -0.13307
H         -9.77136         5.77020        -0.13901
H        -11.08368         3.39603        -0.50062
H        -12.18949         1.25879        -0.54780
H        -12.17122        -1.17395        -0.42853
H        -10.87958        -3.30481        -0.48989
H         -9.75550        -5.43207        -0.46949
H         -8.44720        -7.78443         0.09922
H         -7.16079        -9.97844        -0.34875
H         -5.07580       -11.18728        -0.14121
H         -2.45233       -11.13121        -0.27724
H         -0.01513       -11.00236        -0.71597
H          2.65534       -11.02204        -0.57939
H          5.13804       -10.92520        -0.91595
H          7.32473       -10.06746        -0.72865
H          8.31240        -7.84387         1.21076
H          9.78633        -5.49268         0.69699
H         11.00131        -3.43153         0.19811
