         349
 CSIRO Nanostructure Databank - Neutral Graphene Oxide Data Set
C          1.29981         3.73968         2.48869
C          0.08748         4.39946         2.37087
C          1.21008         6.47683         1.71923
C          0.03508         5.74733         1.98439
C          1.17785         7.87020         1.28805
C         -0.02426         8.58377         1.18327
C          1.12958        10.60173         0.43552
C         -0.04760         9.91942         0.77747
C          1.12058        12.00614         0.06548
C         -0.05591        12.67857        -0.27104
C          1.05681        14.84356        -0.44951
C         -0.06583        14.05874        -0.59374
C          1.03251        16.31871        -0.65950
C         -0.13169        16.91451        -1.33883
C          1.24926        18.75277        -2.14147
C         -0.01451        18.06196        -2.04871
C          1.30161        21.04481        -2.31776
C          0.16716        21.84197        -2.43146
C          1.20665        23.50824        -1.01329
C          0.09695        23.05263        -1.73566
C          1.13199        24.71287        -0.15686
C         -0.02439        25.63337        -0.21508
C          1.18330        27.51929         0.86888
C         -0.00793        26.89943         0.25252
C          1.26629        28.99563         0.99917
C          3.76079         3.76314         2.31457
C          2.51770         4.43079         2.23440
C          3.68701         6.52153         1.62258
C          2.46426         5.81618         1.86522
C          3.63161         7.86978         1.12801
C          2.40477         8.53181         0.93391
C          3.56431        10.60106         0.11601
C          2.38051         9.90844         0.47682
C          3.58860        12.03600         0.03342
C          2.36532        12.72279         0.05198
C          3.61925        14.94172        -0.14291
C          2.30936        14.19628        -0.00926
C          3.61957        16.26114        -0.89508
C          2.34954        17.08730        -0.74422
C          3.69920        19.13031        -1.73349
C          2.38459        18.38066        -1.48547
C          3.66025        20.64592        -1.47523
C          2.46695        21.44387        -1.60112
C          3.67163        23.42055        -0.73621
C          2.42411        22.76116        -1.03513
C          3.69363        24.75355        -0.27319
C          2.48455        25.33081         0.30440
C          3.77017        27.49836         0.85165
C          2.47218        26.74339         0.82572
C          3.74033        28.98157         0.99281
C          2.44442        29.63708         1.16009
C          6.23104         3.78493         2.14234
C          4.97586         4.44825         2.07879
C          6.18036         6.57961         1.65587
C          4.91759         5.84507         1.76697
C          6.16439         7.97716         1.02828
C          4.84608         8.45667         0.54171
C          6.06627        10.55142        -0.54976
C          4.79560         9.84004        -0.09639
C          6.07767        12.04083        -0.28815
C          4.86144        12.75272        -0.13145
C          6.09422        14.87978        -0.42326
C          4.87942        14.17002        -0.22002
C          6.13292        16.33568        -0.52503
C          4.85297        17.07480        -0.56190
C          6.17310        19.21200        -1.03435
C          4.85786        18.52748        -0.94379
C          6.16741        20.62373        -1.10834
C          4.88749        21.31618        -1.19571
C          6.14845        23.47786        -1.13804
C          4.88725        22.72687        -1.02372
C          6.14002        24.98134        -0.96496
C          4.80920        25.68215        -0.69161
C          6.17088        27.70568        -0.00522
C          4.96719        26.88561         0.21086
C          6.12561        29.19689         0.15400
C          4.85439        29.72511         0.76857
C          8.70959         3.75039         1.90575
C          7.46701         4.46010         1.91938
C          8.67307         6.63194         1.50767
C          7.44309         5.85839         1.68980
C          8.60710         7.91406         0.76288
C          7.41143         8.54806         0.46040
C          8.53870        10.54521        -0.43019
C          7.36461         9.86724        -0.13920
C          8.55150        11.98259        -0.68868
C          7.29560        12.72632        -0.50971
C          8.51656        14.87369        -0.90889
C          7.29470        14.13975        -0.53910
C          8.65299        16.34314        -0.49447
C          7.32312        17.05603        -0.64771
C          8.65897        19.19425        -0.57047
C          7.35299        18.47275        -0.82513
C          8.65314        20.66129        -0.91740
C          7.41537        21.35477        -0.99606
C          8.64468        23.50285        -0.98410
C          7.43222        22.77338        -1.02687
C          8.63180        24.95939        -0.77100
C          7.40727        25.64617        -0.60768
C          8.62049        27.71600         0.02104
C          7.38222        27.03236        -0.22356
C          8.58308        29.05916         0.59504
C          7.39621        29.72603         0.75419
C         11.15371         3.68397         1.58297
C          9.95395         4.38329         1.68186
C         11.19969         6.46719         0.93134
C          9.99018         5.86202         1.53901
C         11.15756         7.79531         0.46881
C          9.84270         8.41048         0.15274
C         11.08862        10.48338        -0.71751
C          9.79033         9.77648        -0.49487
C         11.04620        11.94425        -0.99996
C          9.73637        12.63701        -0.98103
C         11.04080        14.85245        -1.08786
C          9.76317        14.09474        -1.20750
C         11.03438        16.21821        -1.09938
C          9.77188        17.00870        -1.36143
C         11.09007        19.12539        -1.10851
C          9.90569        18.47669        -1.03275
C         11.15693        20.61404        -1.34749
C          9.86530        21.36629        -1.05029
C         11.15989        23.52002        -1.14593
C          9.86611        22.78183        -1.07542
C         11.17778        25.05991        -0.98856
C          9.84630        25.68039        -0.60844
C         11.09163        27.75518         0.13168
C          9.83055        27.03710        -0.19346
C         11.02733        29.05256         0.84604
C          9.82498        29.66314         1.04366
C         13.60688         3.62381         0.86566
C         12.48875         4.37798         1.55010
C         13.62608         6.45060         0.68318
C         12.42857         5.79186         1.01124
C         13.59544         7.81523         0.31790
C         12.35362         8.47596         0.19034
C         13.56746        10.61690        -0.42151
C         12.29484         9.97481         0.04840
C         13.53503        12.01386        -0.69568
C         12.29486        12.72029        -0.81052
C         13.51401        14.82700        -0.81870
C         12.28483        14.11509        -0.88275
C         13.51498        16.32278        -0.79046
C         12.17507        16.96693        -0.45981
C         13.56795        19.09901        -0.51549
C         12.38036        18.34831        -1.10465
C         13.55626        20.56507        -0.51487
C         12.40291        21.26871        -0.77929
C         13.65354        23.45676        -0.41362
C         12.43166        22.74565        -0.87876
C         13.59593        24.82361        -0.17267
C         12.23862        25.44308         0.08622
C         13.45056        27.42743         1.19734
C         12.33738        26.94686         0.28161
C         13.41070        28.90654         1.48735
C         12.26948        29.62468         1.34938
C         15.94917         3.52801         0.13642
C         14.79121         4.25075         0.62144
C         16.22767         6.42049         0.50676
C         14.91951         5.72403         1.02434
C         16.04066         7.84218        -0.01346
C         14.83108         8.52246         0.00279
C         16.00046        10.61197        -0.67071
C         14.78056         9.91761        -0.37483
C         15.99819        12.01679        -0.85305
C         14.76143        12.72978        -0.81489
C         15.98931        14.89797        -0.71933
C         14.73561        14.15534        -0.83846
C         15.97571        16.18695        -0.27025
C         14.65597        16.88465         0.06520
C         15.90553        19.10166         0.28853
C         14.67727        18.39645        -0.12584
C         15.94228        20.56498         0.16360
C         14.81198        21.27150        -0.20377
C         16.08955        23.40067         0.04524
C         14.85488        22.71424        -0.23746
C         16.13840        24.88835        -0.06856
C         14.82778        25.62460        -0.06569
C         16.00671        27.62519         1.12354
C         14.78191        27.00179         0.58967
C         15.94423        28.87685         1.78585
C         14.61206        29.45150         2.22490
C         18.25401         3.45508        -0.72624
C         17.05769         4.16898        -0.34816
C         18.33322         6.31475        -0.79484
C         16.97887         5.65600        -0.60215
C         18.40647         7.73267        -0.77154
C         17.22068         8.49171        -0.50140
C         18.44251        10.56889        -1.06929
C         17.22328         9.88729        -0.75120
C         18.42043        11.99625        -1.23965
C         17.22987        12.69996        -1.10657
C         18.52993        14.63299        -0.34177
C         17.27392        14.21672        -1.15865
C         18.54564        16.13622        -0.00158
C         17.23960        16.86191         0.11556
C         18.50783        19.07472         0.13364
C         17.22743        18.35264         0.30570
C         18.46143        20.58351        -0.04045
C         17.22277        21.22478         0.61081
C         18.47150        23.36469         0.82847
C         17.23443        22.70464         0.35076
C         18.48431        24.84083         1.03889
C         17.35603        25.61994         0.41465
C         18.45641        27.69223         1.17769
C         17.26469        27.02895         0.87637
C         18.40320        28.97544         1.79903
C         17.12829        29.52874         2.12010
C         19.39714         4.10837        -1.08179
C         20.70655         6.22709        -1.33242
C         19.47568         5.55547        -1.07526
C         20.78283         7.60304        -1.33415
C         19.63268         8.40670        -1.07367
C         20.89632        10.58537        -1.25662
C         19.65687         9.83832        -1.14384
C         20.92319        11.92396        -1.43458
C         19.67657        12.73321        -1.67296
C         20.81404        14.95777        -1.29513
C         19.74977        14.14361        -1.08906
C         20.82685        16.34547        -0.88964
C         19.76037        16.95180        -0.28410
C         20.92782        19.18319        -0.10427
C         19.69837        18.40677        -0.07930
C         20.95710        20.52190         0.15441
C         19.75121        21.29166         0.34625
C         20.96764        23.42345         0.82190
C         19.75437        22.62798         0.70771
C         20.99378        24.75913         1.04323
C         19.78112        25.58434         1.40106
C         20.96081        27.83185         1.19805
C         19.76325        27.02370         0.79195
C         20.85828        29.05586         1.80790
C         19.61010        29.64734         2.11269
O          4.67244         8.61015        -0.90622
O          1.28604        19.84052        -3.03736
O         18.11799        23.98075         2.16485
O         14.98236         5.75773         2.45701
O          9.54043         6.60947         2.70761
O         14.79138        26.85538        -0.85800
O          9.67735         8.56707        -1.31306
O          8.88224        14.54733        -2.30382
O         17.14567        25.37859        -1.01216
O         12.14757        27.74128        -0.90231
O         13.75981        16.80153        -2.18562
O         12.02992        23.14948        -2.26000
O         11.25110        10.92823        -2.08160
O          1.70670        24.44489         1.15125
O          4.59236        18.11218         0.43218
O         16.49735        18.64160         1.56274
O          1.71778        26.84730         2.06641
O          2.96155        14.89321         1.13762
O          4.74927        26.74288         1.66095
O         12.81664        17.94016        -2.45262
O          9.09133        16.46756         0.84238
O          1.59813        17.07320         0.48158
O          6.20427         7.84217         2.46705
O          6.14104        24.40986        -2.31487
O         17.93180        16.31372         1.31754
O          3.69909        15.91144        -2.30481
H          3.87448        16.73285        -2.82099
O         16.21286         5.83911        -1.82810
H         16.68134         5.36960        -2.54939
O          6.04927        10.47914        -2.00941
H          5.77674         9.56306        -2.24508
O         19.79560        26.82227        -0.64433
H         19.60581        27.67678        -1.08401
O         18.49961        13.89711         0.89729
H         18.12921        14.50480         1.58217
O         13.32761        26.73957         2.47978
H         13.65398        27.35941         3.18012
O         19.81035        25.77480         2.83087
H         19.42669        24.95881         3.22943
O         12.80629         4.45281         2.96743
H         13.69073         4.96186         3.01233
O         19.58089        12.91652        -3.12258
H         18.83863        13.55442        -3.26841
O         17.39331        21.04917         2.03913
H         16.59159        21.37740         2.49549
O          9.42274        17.01988        -2.75564
H          9.33349        16.07984        -3.05364
O         14.42434        29.06590         3.61485
H         15.25399        29.26097         4.09977
O          6.08899        29.74977        -1.22904
H          6.92398        29.48361        -1.67133
O         14.41292        16.62972         1.46045
H         15.10396        17.11547         1.96723
O         17.14780         6.50534         1.61273
H         16.59531         6.32749         2.42210
O         18.29258        20.79859        -1.47511
H         19.10947        20.49736        -1.92634
O         11.85187        17.04976         0.92473
H         10.88269        16.82278         1.04040
O         11.52873        25.62752        -2.25184
H         12.06155        24.95480        -2.73874
O          4.03837        18.90765        -3.13578
H          3.32903        19.32844        -3.67272
O         11.29429        20.70558        -2.80402
H         11.98793        20.06846        -3.08211
O          8.76361        19.13676         0.89656
H          8.86640        18.15502         1.12435
O          4.35096        26.24375        -1.96093
H          4.70687        25.65345        -2.66842
O         17.49566        14.65973        -2.53560
H         16.65950        14.52730        -3.03169
O         12.05027        10.47736         1.41171
H         12.77774        10.15769         1.98752
O         11.73781        24.85434         1.31534
H         12.24382        25.25082         2.06569
H          1.33281         2.67913         2.77558
H         -0.85003         3.86156         2.56949
H         -0.94918         6.22384         1.88454
H         -0.97688         8.10547         1.44707
H         -1.01298        10.44264         0.75002
H         -1.00700        12.13231        -0.32119
H         -1.02166        14.50069        -0.90584
H         -1.08948        16.37576        -1.34321
H         -0.87186        18.47712        -2.59537
H         -0.68306        21.48945        -3.02865
H         -0.83446        23.63240        -1.76174
H         -0.93916        25.27265        -0.70818
H         -0.90233        27.52960         0.13147
H          0.32327        29.56200         1.02748
H          3.78339         2.69356         2.56986
H          2.45405        30.72988         1.29016
H          6.25033         2.70825         2.36499
H          4.77750        30.82249         0.83001
H          8.68841         2.66026         2.05333
H          7.39186        30.73658         1.18947
H         11.14584         2.59512         1.75353
H          9.77372        30.63197         1.56269
H         13.48688         2.54925         0.65172
H         12.24477        30.67373         1.68603
H         15.94243         2.42783         0.21033
H         14.63475        30.57536         2.16264
H         18.23836         2.35524        -0.68057
H         17.08653        30.50740         2.62304
H         20.30246         3.53854        -1.33809
H         21.60418         5.62789        -1.54488
H         21.74312         8.08372        -1.56666
H         21.84726        10.04355        -1.14722
H         21.89054        12.44506        -1.49552
H         21.69327        14.58635        -1.84190
H         21.71786        16.93043        -1.15736
H         21.88182        18.65240        -0.22441
H         21.93350        21.01790         0.24581
H         21.92877        22.91284         0.66203
H         21.97186        25.26110         1.09483
H         21.95477        27.43042         0.95266
H         21.77541        29.60618         2.06524
H         19.57391        30.63178         2.59921
