         320
 CSIRO Nanostructure Databank - Neutral Graphene Oxide Data Set
C         30.42303        31.84556        -2.37952
C         30.47719        33.09009        -2.23927
C         30.15778        36.39271        -1.02619
C         30.35948        37.52907        -0.58634
C         30.37456        40.16317         1.49089
C         30.53772        41.28199         1.99616
C         32.82136        28.99198        -1.81366
C         31.83417        29.65808        -2.14782
C         32.70144        31.75149        -1.50246
C         31.58955        31.07408        -2.00077
C         32.65296        33.17036        -0.89690
C         31.22902        34.02123        -1.51678
C         32.90668        36.17095        -0.32691
C         30.90521        35.16693        -0.86203
C         32.79588        37.66595        -0.39920
C         31.41453        38.52105        -0.21054
C         32.87257        39.91828         1.45977
C         31.36640        39.09427         1.20048
C         32.98897        41.33392         2.12988
C         31.62389        42.14510         2.29991
C         32.98705        43.93326         2.60295
C         31.74338        43.47734         2.59423
C         35.15263        27.59319        -0.19760
C         35.01208        29.06988        -0.45213
C         34.22412        29.49839        -1.70350
C         35.31301        31.82023        -1.25365
C         34.05178        31.08800        -1.60262
C         35.24498        33.19284        -0.55211
C         33.99404        34.00370        -1.06481
C         35.36105        36.07728        -0.05523
C         34.04771        35.43454        -0.48635
C         35.44180        37.53457        -0.50529
C         34.13382        38.33092        -0.22820
C         35.47116        40.11425         1.14754
C         34.14259        39.40854         0.82069
C         35.35903        41.62922         1.04221
C         33.99565        42.25353         1.33777
C         35.54498        44.33217         2.43330
C         34.20538        43.67066         2.14300
C         35.58037        45.84826         2.23359
C         37.57474        27.43603         0.11437
C         36.20118        27.02719         0.14007
C         37.59530        28.87597        -0.25498
C         36.46957        29.59127        -0.57800
C         37.77505        31.72862        -0.53284
C         36.61982        30.98189        -1.20655
C         37.85697        33.20692        -0.96743
C         36.57020        33.96072        -0.65316
C         37.87542        36.02060        -0.22954
C         36.63804        35.33213        -0.40842
C         38.00172        37.53839        -0.33982
C         36.68212        38.25578        -0.03439
C         37.92343        40.39253         0.35021
C         36.67008        39.53099         0.42305
C         37.91761        41.56156         1.32541
C         36.63121        42.39112         1.15607
C         37.76535        44.58325         0.85507
C         36.66268        43.80085         1.54075
C         37.84643        46.08416         1.22589
C         36.62180        46.41874         1.87054
C         39.92154        24.61942         0.44934
C         38.78205        25.25451         0.48577
C         40.08582        27.29799        -0.02970
C         38.71762        26.66492         0.24064
C         40.04477        28.82238         0.42382
C         38.95798        29.49155        -0.41742
C         40.41587        31.65893        -0.68641
C         39.06913        30.93893        -0.76972
C         40.25972        33.12691        -0.32744
C         39.10041        33.82237        -0.33133
C         40.33669        35.89006         0.64297
C         38.98737        35.17075         0.36871
C         40.38560        37.38233         0.74845
C         39.04273        38.12675         0.64317
C         40.39200        40.27097         0.41866
C         39.20133        39.61333         0.47293
C         40.53972        41.64446         1.14569
C         39.20060        42.40568         1.24761
C         40.40703        44.71171         0.91746
C         39.12281        43.89504         1.13724
C         40.13472        46.07576         0.27665
C         38.96396        46.79557         0.91528
C         40.20708        48.89473         0.54470
C         39.25281        48.20179         0.93404
C         42.55771        24.59525         0.79536
C         41.23703        24.83111         0.54561
C         42.60945        27.25159         0.34359
C         41.23097        26.75869         0.79046
C         42.59678        28.79024         0.35647
C         41.42638        29.48227         0.29366
C         42.66999        31.66937         0.52160
C         41.30089        30.99446         0.42818
C         42.75969        33.05654         0.13452
C         41.57193        33.85410        -0.30481
C         42.82339        35.92833        -0.00953
C         41.65717        35.12201         0.55283
C         42.78631        37.29341        -0.09925
C         41.74897        38.12659         0.64372
C         42.47482        40.02624        -0.87509
C         41.58950        39.50332         0.03627
C         42.99069        41.98256         0.78594
C         41.72734        42.51505         0.72539
C         42.82875        44.80597         0.17953
C         41.51794        43.90741         0.12909
C         42.59930        46.12012        -0.59729
C         41.25738        46.80956        -0.38024
C         42.56706        48.93173        -0.59337
C         41.13690        48.59621        -0.58831
C         43.55863        25.19318         1.31132
C         45.15337        27.16324         0.64671
C         43.76797        26.68914         1.23749
C         45.19882        28.74615         0.65498
C         43.96332        29.44351         0.09616
C         45.30710        31.65376         0.51164
C         43.97376        30.89271         0.57010
C         45.26538        32.90676        -0.34968
C         44.00561        33.70867        -0.27420
C         45.23139        35.82823        -0.55180
C         44.02936        35.18547        -0.35420
C         45.22535        37.25420        -0.90762
C         43.89186        37.96697        -0.80026
C         45.12612        40.27003        -0.94434
C         43.84693        39.45630        -1.02319
C         45.05804        41.82437        -0.94548
C         44.15400        42.58420         0.05897
C         45.11313        44.67275        -1.22150
C         44.08531        44.03651        -0.26639
C         45.20883        46.18288        -0.70336
C         43.86852        46.87478        -0.96625
C         43.60850        48.32276        -0.83271
C         47.32571        27.45437         1.67138
C         46.30535        26.75415         1.62503
C         47.73796        28.66530         0.90449
C         46.39104        29.40015         0.67526
C         47.76403        31.62120         0.38093
C         46.50444        30.79713         0.09013
C         47.79995        32.93423         0.02616
C         46.57985        33.62699        -0.48593
C         47.68306        35.90387        -0.01503
C         46.53193        35.12003        -0.61969
C         47.75084        37.37933        -0.45418
C         46.51361        38.07641        -1.04058
C         47.70887        40.27107        -0.71183
C         46.39565        39.52388        -0.44176
C         47.66799        41.78495        -0.52646
C         46.41380        42.51836        -0.96897
C         47.69223        44.53358        -1.74331
C         46.41943        43.86627        -1.16594
C         47.51372        45.99156        -1.44734
C         46.47186        46.65305        -1.36644
C         50.13665        29.11854         1.83418
C         48.74450        29.60209         1.56864
C         50.11476        31.83002         1.29280
C         49.04924        30.89141         0.70565
C         50.19971        33.11008         0.81467
C         49.14313        33.62833        -0.15066
C         50.15711        36.03871         0.34356
C         49.05075        35.21173        -0.35230
C         50.27341        37.42876        -0.35834
C         48.90925        38.10870        -0.43588
C         50.23358        40.27764        -0.84035
C         48.88698        39.57523        -0.63704
C         50.19673        41.78641        -0.52861
C         48.93783        42.51350        -0.93828
C         50.26035        44.43099        -1.29692
C         48.93417        43.84329        -1.26447
C         51.17421        29.73843         2.07609
C         52.44726        32.01982         2.08689
C         51.18585        31.22465         2.29958
C         52.42135        33.16715         1.62565
C         51.41034        33.95323         0.98116
C         52.50038        36.23168         0.78458
C         51.45814        35.26462         0.60241
C         52.39598        37.47661         0.81552
C         51.38096        38.31064         0.23933
C         52.46060        40.58384         0.08259
C         51.38877        39.63816        -0.03328
C         52.67975        41.76208        -0.24533
C         51.75771        42.53664        -1.15011
C         51.35481        43.94379        -0.95331
O         39.17613        43.25776         2.45853
O         46.77129        34.29041        -1.79041
O         31.82350        35.44929         0.16509
O         44.31161        37.35899        -2.06196
O         44.44163        32.94474        -1.51991
O         44.61347        39.78670        -2.22275
O         39.16700        29.90597        -1.80169
O         45.36769        26.81040        -0.61676
O         50.65555        37.33709        -1.80097
O         33.43942        38.40317        -1.50657
O         43.03523        46.25665        -1.97252
O         39.64135        28.90410         1.74361
O         43.30569        31.19574         1.79871
O         33.64153        38.89490         2.11482
O         40.19390        46.21666        -1.19129
O         49.56561        33.06284        -1.48195
O         34.81585        31.79636        -2.62745
O         35.94175        42.16466        -0.18270
O         40.33437        36.55384         1.95732
O         44.84895        43.54164         0.89897
O         34.38794        29.70763         0.65336
H         34.81680        29.40657         1.48154
O         40.84260        45.07943         2.23148
H         40.61960        44.34538         2.84722
O         43.66517        27.23803         2.54568
H         44.53741        27.11666         2.99098
O         37.93489        41.00363         2.64795
H         38.03463        41.75143         3.27859
O         41.11575        43.73235        -1.23109
H         40.78997        44.59622        -1.59226
O         32.42124        33.00473         0.47265
H         31.72616        32.33123         0.61797
O         42.82286        26.77691        -0.99151
H         43.81921        26.68054        -1.13967
O         46.79771        38.19974        -2.44406
H         45.93478        38.16140        -2.92091
O         42.10139        41.07139        -1.63991
H         42.87015        41.42604        -2.15438
O         40.59802        31.28566         1.65219
H         40.25737        30.41378         2.03294
O         43.32987        40.90752         1.53523
H         42.53972        40.60055         2.05208
O         38.39336        37.99971         1.94264
H         38.81755        38.63580         2.55948
O         49.19213        35.42720        -1.76105
H         48.46356        34.93247        -2.21168
O         46.26778        39.41070         0.98806
H         46.54409        40.27732         1.37771
O         35.87661        44.03737         3.79170
H         35.11688        44.28068         4.36140
O         35.66209        37.45766        -1.94542
H         34.84023        37.79271        -2.38450
O         33.46265        41.15038         3.45702
H         34.12584        40.41412         3.44332
O         45.61675        32.13623         1.83562
H         44.81196        32.01582         2.39711
O         46.50315        30.63029        -1.34193
H         47.22575        29.99816        -1.55863
O         44.45084        42.15967        -2.24168
H         44.89315        41.60789        -2.92737
O         38.46099        34.81492         1.68635
H         38.51780        35.63345         2.23541
O         40.82134        41.16804         2.50328
H         40.57562        41.89597         3.11856
O         40.99598        26.85169         2.11345
H         41.83556        26.94171         2.62643
O         45.44022        46.16731         0.69685
H         45.48604        47.08966         1.02290
O         38.06077        33.27950        -2.39785
H         37.69772        32.45313        -2.81021
O         48.19285        30.00439         2.80975
H         48.86615        30.53117         3.30128
O         34.95761        29.15522        -2.86380
H         34.39730        29.32522        -3.64983
O         42.24966        38.29830         1.99502
H         41.90551        37.54777         2.53185
O         35.30924        36.05954         1.39457
H         35.15345        35.12629         1.66837
O         37.56097        44.53992        -0.57693
H         37.08424        43.71152        -0.81192
O         47.59778        41.89716         0.94657
H         48.53165        41.80964         1.27878
O         43.08712        45.24453         1.51676
H         43.84821        44.72303         1.86665
O         44.10276        29.44901        -1.34068
H         44.57918        28.62464        -1.59513
O         37.96540        40.94508        -0.99284
H         38.15689        40.20395        -1.61002
O         40.55479        48.82608        -1.81081
H         39.79767        48.21187        -1.92913
O         31.42306        39.62552        -1.07967
H         31.43596        39.31817        -2.00886
O         42.01096        34.66223         1.87314
H         41.62911        35.29355         2.52557
O         47.30990        35.86730         1.37597
H         47.99792        36.33380         1.90680
O         50.55917        40.09574        -2.23954
H         50.63368        39.12025        -2.40286
O         52.00667        42.28608        -2.46724
H         51.88493        41.32388        -2.65340
O         40.28618        27.21819        -1.42770
H         41.24835        27.10093        -1.63230
O         37.54012        31.70780         0.89638
H         38.37412        31.95404         1.36205
O         35.05933        32.98482         0.86645
H         35.86910        32.52477         1.20545
O         44.75829        44.74307        -2.60514
H         44.40550        43.86419        -2.87615
O         38.42702        37.85805        -1.68586
H         37.66790        37.63505        -2.27594
O         34.12892        34.23065        -2.47594
H         35.02870        34.57099        -2.66487
O         50.27805        41.91681         0.89986
H         50.45309        42.86060         1.10865
O         31.30410        38.04801         2.11096
H         31.26775        38.40014         3.02308
O         41.10088        31.57072        -1.94497
H         40.71367        30.80332        -2.43253
O         37.03561        30.80676        -2.57399
H         36.35789        30.23734        -3.02137
O         49.58677        30.42639        -0.54890
H         49.75257        31.22066        -1.11249
O         50.68104        31.46238         3.60077
H         51.30701        31.09069         4.25689
O         47.59663        44.33434        -3.15434
H         46.77230        44.78023        -3.45663
O         51.71529        36.36893        -1.93999
H         51.20758        35.51506        -2.05200
O         33.38575        42.55165         0.10413
H         34.08500        42.85091        -0.52064
O         35.74575        39.86379         2.54916
H         35.96528        38.91266         2.65515
O         50.94931        33.49729        -1.71821
H         51.16707        33.00508        -2.54746
O         49.75276        36.36903         1.70238
H         50.52734        36.77793         2.14859
O         41.77417        34.25629        -1.68117
H         41.73088        33.43757        -2.23237
O         48.18250        28.25075        -0.37855
H         47.56681        27.54087        -0.67768
