         732
 CSIRO Nanostructure Databank - Neutral Graphene Oxide Data Set
C         22.94487        24.81437         0.08370
C         21.74835        25.52639        -0.01424
C         22.96229        27.51816        -0.73349
C         21.74940        26.85357        -0.42114
C         22.97512        28.87565        -1.19218
C         21.75210        29.59687        -1.43495
C         22.96729        31.57677        -2.37535
C         21.72631        30.83899        -1.97468
C         23.02043        33.00546        -1.82630
C         21.83384        33.62027        -1.27740
C         22.90834        35.85446        -1.42528
C         21.78965        34.94265        -0.99957
C         22.99618        37.14917        -0.65051
C         21.98542        37.66652         0.09938
C         23.12910        39.80783         0.49733
C         22.06361        38.97724         0.69026
C         23.16143        41.19991         1.01235
C         22.20496        41.66471         2.01796
C         23.53716        43.67934         2.45283
C         22.34756        42.87892         2.61298
C         23.68425        44.97478         3.23488
C         22.37676        45.70656         3.40405
C         23.48302        47.86614         3.24936
C         22.32107        47.06082         3.46036
C         25.44509        23.31438         0.20400
C         25.42657        24.69191        -0.10774
C         24.17883        25.42928        -0.20886
C         25.44531        27.45774        -0.86930
C         24.19619        26.79927        -0.60590
C         25.46978        28.82044        -1.27694
C         24.21964        29.52913        -1.47577
C         25.48899        31.51126        -2.23897
C         24.22543        30.83115        -1.99357
C         25.47408        33.07010        -2.22489
C         24.20354        33.73510        -1.86955
C         25.44569        35.84902        -1.50997
C         24.24424        35.13538        -1.52069
C         25.46857        37.27471        -1.22689
C         24.19709        37.96451        -0.92563
C         25.58508        40.02226        -0.22017
C         24.25763        39.37990        -0.36240
C         25.69513        41.29623         0.39261
C         24.48209        41.97842         0.91977
C         25.93309        43.85055         1.85638
C         24.61759        43.16958         1.77542
C         25.91692        45.31018         2.11462
C         24.78340        45.86999         2.68046
C         25.86634        48.10885         2.57614
C         24.69113        47.29911         2.85936
C         25.86920        49.49699         2.84474
C         27.88258        23.24383         0.11050
C         26.63248        22.60995         0.29760
C         27.89645        24.63849        -0.18991
C         26.66635        25.35843        -0.32727
C         27.91496        27.41425        -0.89523
C         26.67275        26.74330        -0.70236
C         27.94292        28.79069        -1.29514
C         26.71867        29.47964        -1.50052
C         27.95485        31.58270        -1.97325
C         26.75289        30.85664        -1.90765
C         27.94928        33.02938        -2.01973
C         26.73435        33.74918        -1.94959
C         27.92709        35.86432        -1.74936
C         26.71981        35.15608        -1.71375
C         27.87957        37.37062        -1.83089
C         26.65308        38.00227        -1.21364
C         27.98019        40.09209        -0.77277
C         26.72620        39.37185        -0.75211
C         28.05778        41.41669        -0.23596
C         26.93169        41.97135         0.40853
C         28.22696        44.13536         0.74045
C         27.09465        43.26084         1.11943
C         28.20458        45.52212         1.13033
C         27.06740        46.10089         1.75163
C         28.18819        48.31985         1.77465
C         27.03808        47.51151         2.03853
C         28.16612        49.71491         2.06486
C         26.98325        50.27640         2.59977
C         30.32952        20.40428         0.57063
C         29.14829        21.10984         0.48149
C         30.36434        23.18204         0.03577
C         29.12483        22.50650         0.21255
C         30.38964        24.60002        -0.21091
C         29.14427        25.33302        -0.33054
C         30.37563        27.47703        -0.66032
C         29.12696        26.71160        -0.63052
C         30.39392        28.79476        -1.30954
C         29.19707        29.46911        -1.54696
C         30.41655        31.60807        -1.95734
C         29.21314        30.88889        -1.86643
C         30.42738        33.04786        -2.00162
C         29.18181        33.74881        -1.97502
C         30.41200        35.87506        -2.02747
C         29.16967        35.17594        -1.92812
C         30.44240        37.33288        -1.73716
C         29.17207        38.02433        -1.41281
C         30.39299        40.20874        -1.32159
C         29.16455        39.48887        -1.24203
C         30.38674        41.60979        -0.98309
C         29.27270        42.18610        -0.38015
C         30.48581        44.38036        -0.21069
C         29.29918        43.58102         0.04918
C         30.50208        45.76522         0.23465
C         29.36461        46.33345         0.85310
C         30.53165        48.50942         1.03072
C         29.36545        47.72290         1.21753
C         30.52876        49.91368         1.35034
C         29.34112        50.52465         1.82663
C         30.47285        52.68961         1.85256
C         29.34709        51.92476         2.06988
C         32.91784        18.94851         0.91644
C         32.81962        20.32112         0.44720
C         31.58964        21.04238         0.39055
C         32.83148        23.14053        -0.01145
C         31.59073        22.45273         0.11844
C         32.86367        24.54639        -0.25230
C         31.62970        25.24907        -0.37184
C         32.91440        27.33656        -1.05474
C         31.67308        26.71109        -0.53024
C         32.95105        28.79247        -1.24611
C         31.67687        29.39543        -1.67256
C         32.97284        31.58935        -1.84775
C         31.69500        30.88554        -2.02642
C         32.94199        33.03989        -2.10516
C         31.64442        33.76954        -2.07861
C         32.94495        35.94474        -2.28000
C         31.62981        35.18875        -2.11028
C         32.91889        37.43944        -1.99135
C         31.60914        38.15274        -2.24956
C         32.79849        40.36491        -1.96365
C         31.57636        39.58457        -1.77191
C         32.85398        41.75689        -1.53808
C         31.51481        42.46981        -1.48983
C         32.78277        44.63671        -1.22091
C         31.57220        43.82913        -0.85766
C         32.85488        45.97361        -0.52787
C         31.68990        46.54628         0.06117
C         32.92772        48.65022         0.45132
C         31.71365        47.90286         0.51185
C         32.93874        50.06302         0.78856
C         31.71013        50.70149         1.16830
C         32.86919        52.90249         1.16065
C         31.68616        52.10500         1.40130
C         32.88452        54.31450         1.29512
C         35.17242        18.81050        -0.06248
C         34.06839        18.24366         0.79501
C         35.28195        20.30362         0.15552
C         34.04704        21.00798         0.19863
C         35.29780        23.11946         0.10746
C         34.05663        22.42521         0.07621
C         35.31343        24.54896         0.02259
C         34.12278        25.22659        -0.26076
C         35.38861        27.43058        -0.51973
C         34.20806        26.61200        -0.76821
C         35.36985        28.81531        -0.77337
C         34.14891        29.48564        -1.24462
C         35.39148        31.66444        -1.33003
C         34.15375        30.92582        -1.51264
C         35.42495        33.07921        -1.43838
C         34.21559        33.81113        -1.88150
C         35.36300        36.02324        -1.53396
C         34.05660        35.26667        -1.46784
C         35.36308        37.37195        -1.72999
C         34.10884        38.10984        -1.92752
C         35.36775        40.34588        -1.77095
C         34.15012        39.59287        -2.06913
C         35.36261        41.74070        -1.62632
C         34.07731        42.45794        -1.47866
C         35.28677        44.61571        -1.33346
C         34.06919        43.83488        -1.14903
C         35.31839        46.04153        -0.91207
C         34.05444        46.69743        -0.56196
C         35.38025        48.69266         0.09816
C         34.08789        48.01262        -0.01845
C         35.39426        50.15941         0.44936
C         34.10702        50.83097         0.66691
C         35.24210        53.03831         0.47559
C         34.07797        52.26025         0.76849
C         35.24887        54.43396         0.66809
C         34.03532        55.04839         1.08024
C         37.69599        16.04833         0.71228
C         36.58723        16.65301         0.16838
C         37.81058        18.86757         0.12147
C         36.53236        18.10882        -0.03911
C         37.76713        20.28853         0.66609
C         36.49736        21.00079         0.24926
C         37.74879        23.13553         0.71822
C         36.50150        22.40900         0.28819
C         37.74507        24.62223         0.41522
C         36.55631        25.27583         0.17378
C         37.71819        27.52100         0.49341
C         36.39945        26.76713         0.39939
C         37.73158        28.96900         0.08150
C         36.53596        29.60206        -0.52780
C         37.79091        31.71762        -0.79635
C         36.57052        30.98391        -0.87835
C         37.82651        33.09529        -1.05701
C         36.61846        33.80603        -1.25708
C         37.87064        36.04865        -1.26015
C         36.58181        35.30640        -1.00581
C         37.90315        37.40917        -1.48458
C         36.64725        38.11203        -1.84232
C         37.91613        40.32944        -1.62695
C         36.64712        39.62202        -1.87469
C         37.87757        41.76304        -1.55882
C         36.61395        42.44216        -1.57364
C         37.89477        44.72202        -1.56899
C         36.59381        43.91203        -1.65519
C         37.79356        45.90514        -0.60718
C         36.51666        46.68866        -0.79241
C         37.81876        48.85774        -0.41475
C         36.51440        48.19114        -0.76128
C         37.79249        50.26844        -0.23823
C         36.56453        50.92544         0.02110
C         37.76205        53.17085        -0.13100
C         36.44012        52.36568        -0.06343
C         37.70474        54.56679         0.29133
C         36.49707        55.20573         0.54307
C         37.71211        57.33012         0.88937
C         36.52739        56.61694         0.81959
C         40.01956        14.73853         1.95635
C         40.06619        16.08705         1.51583
C         38.91873        16.73392         0.95973
C         40.23938        18.90773         0.85574
C         39.11240        18.07859         0.29496
C         40.27961        20.31182         0.65404
C         39.05160        21.04744         0.37150
C         40.26419        23.20339         0.30550
C         39.02175        22.41868         0.32080
C         40.23148        24.66981         0.50696
C         39.00327        25.35778         0.49046
C         40.21882        27.50216         0.40747
C         39.00545        26.78679         0.47259
C         40.22331        28.94369         0.20349
C         39.04186        29.62068        -0.05361
C         40.30541        31.80278        -0.24732
C         39.00691        31.07296        -0.25220
C         40.44449        33.05151        -1.08052
C         39.12519        33.80297        -1.25758
C         40.39357        36.03403        -1.07163
C         39.13751        35.29494        -1.30702
C         40.37980        37.44388        -1.20942
C         39.14565        38.15887        -1.48788
C         40.40582        40.31283        -1.70440
C         39.11669        39.58070        -1.59114
C         40.41029        41.84145        -1.81330
C         39.10080        42.50259        -1.44694
C         40.30819        44.59103        -0.92244
C         39.11673        43.89306        -1.24326
C         40.28725        46.02912        -0.65346
C         39.06237        46.73098        -0.65140
C         40.27253        48.86512        -0.29761
C         39.04093        48.14332        -0.46352
C         40.26305        50.29209        -0.18324
C         39.03369        51.00835        -0.21022
C         40.23286        53.10266         0.21489
C         39.03458        52.42108        -0.04484
C         40.18797        54.53198         0.71681
C         39.00954        55.31786         0.14918
C         40.21259        57.41141         0.80970
C         38.97362        56.72873         0.68376
C         40.26473        58.80865         1.06345
C         42.39846        14.75291         2.38881
C         41.16812        14.09208         2.39529
C         42.48933        16.10450         1.99710
C         41.31348        16.79812         1.60243
C         42.57934        18.93846         1.58034
C         41.36814        18.22051         1.33800
C         42.62602        20.35102         1.41458
C         41.46883        21.02290         0.94859
C         42.64083        23.26700         1.27677
C         41.54429        22.46244         0.66182
C         42.69499        24.70652         0.92439
C         41.46639        25.38334         0.62659
C         42.70322        27.52151         0.63327
C         41.46388        26.80616         0.53850
C         42.71371        28.94693         0.45969
C         41.49914        29.64937         0.20150
C         42.75726        31.76862         0.05451
C         41.54885        31.03230        -0.04221
C         42.73899        33.22843        -0.12344
C         41.59970        33.89442        -0.57398
C         42.77830        36.05584        -0.47176
C         41.57622        35.32591        -0.71909
C         42.76963        37.47037        -0.62476
C         41.60657        38.14775        -0.99035
C         42.88004        40.36224        -0.99292
C         41.66527        39.58776        -1.32805
C         42.87201        41.78587        -1.04314
C         41.62446        42.51492        -1.19159
C         42.78311        44.65808        -0.64424
C         41.55127        43.87075        -0.88874
C         42.63119        45.90479         0.20602
C         41.47836        46.73586        -0.30313
C         42.73418        48.86357         0.03197
C         41.49176        48.14310        -0.17170
C         42.72918        50.28451         0.05303
C         41.48960        51.00109        -0.00580
C         42.70949        53.14044         0.31732
C         41.47084        52.41251         0.19671
C         42.70499        54.56702         0.42401
C         41.48546        55.28863         0.52734
C         42.70439        57.42505         0.63972
C         41.46493        56.69185         0.63819
C         42.67983        58.80909         0.85363
C         41.47068        59.48655         1.07882
C         44.99913        16.11567         2.04274
C         43.77065        16.79775         1.97371
C         45.01730        18.92055         1.83968
C         43.78453        18.21531         1.83238
C         45.02503        20.35668         1.88022
C         43.85744        21.06249         1.68646
C         45.14706        23.28820         1.92995
C         43.85586        22.54496         1.79813
C         45.05385        24.75239         1.72182
C         43.88785        25.40957         1.13399
C         45.12227        27.60221         1.12245
C         43.91021        26.84212         0.95165
C         45.14954        28.99248         0.92399
C         43.92892        29.68012         0.58574
C         45.11993        31.86521         0.92379
C         43.92837        31.09131         0.42814
C         45.17196        33.27169         0.39112
C         43.96586        33.95833         0.07765
C         45.24577        36.06144        -0.10601
C         43.98863        35.35908        -0.14708
C         45.27879        37.46867        -0.27960
C         43.98690        38.23994        -0.18368
C         45.28089        40.33320        -0.61388
C         44.05856        39.65523        -0.69947
C         45.28660        41.74580        -0.54177
C         44.07586        42.46454        -0.73058
C         45.23559        44.59022         0.02861
C         44.08872        43.92735        -0.61009
C         45.23801        45.96403         0.21737
C         43.95180        46.70593         0.52890
C         45.18218        48.86645         0.18539
C         43.97110        48.16431         0.12152
C         45.19557        50.29153         0.24513
C         43.95566        51.00287         0.18764
C         45.18394        53.13709         0.26662
C         43.94572        52.42955         0.26238
C         45.18317        54.56847         0.28170
C         43.94886        55.28413         0.38329
C         45.19155        57.38070         0.38673
C         43.95197        56.70391         0.46369
C         46.20538        16.79468         1.87194
C         47.42996        18.93487         1.36848
C         46.23337        18.19299         1.74893
C         47.48164        20.33512         1.56364
C         46.31630        21.02670         2.29125
C         47.67640        23.12303         2.31431
C         46.30720        22.55805         2.14036
C         47.89241        24.57437         2.49139
C         46.04149        25.62417         2.16097
C         47.57834        27.54837         1.62648
C         46.31053        26.94333         1.63257
C         47.65218        28.95831         1.25138
C         46.40609        29.70602         1.03056
C         47.64757        31.82708         0.74703
C         46.42172        31.09689         0.87174
C         47.63826        33.17276         0.41678
C         46.40660        33.92287         0.28128
C         47.71940        36.02434        -0.04576
C         46.45975        35.32897         0.01615
C         47.71973        37.43441        -0.19854
C         46.51299        38.13984        -0.33351
C         47.77496        40.31380        -0.22347
C         46.57487        39.58596        -0.76552
C         47.71810        41.71409         0.01001
C         46.48951        42.40805        -0.12057
C         47.74049        44.56432         0.57163
C         46.41271        43.79244         0.32562
C         47.70321        46.01352         0.38263
C         46.47476        46.67609         0.32661
C         47.73310        48.83915         0.43392
C         46.48601        48.13864        -0.04826
C         47.68193        50.29874         0.81883
C         46.41823        51.01034         0.38490
C         47.67104        53.13864         0.22384
C         46.41928        52.41530         0.30841
C         47.66164        54.54673         0.10333
C         46.41428        55.27939         0.20969
C         46.38383        56.69088         0.25219
C         49.60844        18.98560         0.27152
C         48.50326        18.28340         0.71810
C         49.72764        20.37431         0.52487
C         48.65210        21.01809         1.19872
C         50.03198        23.13620         1.28876
C         48.84379        22.38482         1.70136
C         50.14458        24.56219         1.66901
C         48.89748        25.31804         1.97052
C         50.14387        27.47250         1.51390
C         48.88098        26.84949         2.12428
C         50.13929        28.95394         1.47793
C         48.86233        29.64482         1.21234
C         50.17663        31.67554         0.39234
C         48.94643        31.15887         1.13870
C         50.12849        33.04517        -0.18547
C         48.81508        33.81344        -0.27564
C         50.20293        35.98763        -0.01954
C         48.94656        35.30294        -0.04397
C         50.24042        37.41604         0.06382
C         49.02404        38.15281        -0.43841
C         50.16219        40.29224         0.23930
C         48.97602        39.61047        -0.06394
C         50.17174        41.71041         0.23862
C         48.94835        42.43322         0.22400
C         50.20637        44.56730         0.31369
C         48.98871        43.84572         0.33343
C         50.18172        46.01305         0.42111
C         48.96011        46.71317         0.37144
C         50.17947        48.89169         0.93921
C         48.92001        48.16258         0.50421
C         50.16859        50.33304         0.47546
C         48.95965        51.01269         0.42295
C         50.12545        53.12497        -0.05208
C         48.91416        52.42568         0.18107
C         50.07755        54.53555        -0.22057
C         48.89034        55.22359        -0.12459
C         51.90825        20.57262        -0.69465
C         50.92384        21.11798         0.19154
C         52.37903        23.14408         0.48283
C         51.06697        22.47244         0.63676
C         52.47687        24.60202         0.63356
C         51.38435        25.31572         1.32347
C         52.58632        27.45169         0.96683
C         51.30865        26.79475         1.23967
C         52.66354        28.88012         0.98227
C         51.42745        29.67380         1.17627
C         52.66501        31.62521         0.22781
C         51.39191        31.02902         0.56457
C         52.69827        33.04323        -0.13834
C         51.42490        33.81977        -0.22939
C         52.64059        35.97503         0.31369
C         51.44483        35.28489         0.00636
C         52.63528        37.37240         0.58784
C         51.42642        38.09168         0.38139
C         52.65321        40.31337         0.34026
C         51.39248        39.57371         0.71812
C         52.64262        41.66285         0.12855
C         51.40707        42.42482         0.18202
C         52.71010        44.52645         0.28355
C         51.42939        43.83173         0.20402
C         52.68042        45.96415         0.66002
C         51.42907        46.74512         0.55149
C         52.70817        48.86952         0.53000
C         51.45911        48.13349         0.63162
C         52.66562        50.31934         0.29978
C         51.40934        51.01124         0.22974
C         52.58931        53.08058        -0.34252
C         51.37629        52.40506        -0.06817
C         53.05984        21.22734        -1.03984
C         54.61305        23.28166        -0.81377
C         53.46556        22.45854        -0.35594
C         54.74891        24.61548        -0.37098
C         53.62679        25.28535         0.27689
C         55.04741        27.28754         0.62850
C         53.71240        26.69398         0.58855
C         55.12886        28.83117         0.82461
C         53.86406        29.55463         0.75868
C         55.16569        31.64118         0.34511
C         53.88637        30.95757         0.42975
C         55.22250        33.04147         0.28763
C         53.98248        33.78707         0.00106
C         55.21784        35.89748         0.62309
C         53.90442        35.20289         0.44781
C         55.21146        37.39484         0.69971
C         53.90783        38.12346         0.84977
C         55.18406        40.27928         0.16236
C         53.93942        39.66536         0.78840
C         55.17502        41.66964        -0.04666
C         53.88316        42.40849        -0.29758
C         55.23350        44.50697         0.43098
C         53.89292        43.85456         0.14822
C         55.21944        46.00387         0.23397
C         53.99575        46.72640         0.62629
C         55.21182        48.88113         0.34362
C         53.91941        48.18556         0.46526
C         55.18232        50.39700         0.13913
C         53.85137        51.04001         0.04145
C         53.79175        52.41057        -0.29515
C         56.84123        23.36530        -1.78659
C         55.65246        22.69346        -1.56593
C         57.05610        24.66412        -1.26332
C         55.97995        25.31257        -0.59630
C         57.39271        27.29933        -0.23162
C         56.17647        26.63703        -0.07239
C         57.58216        28.66260         0.34131
C         56.38057        29.50444         0.50450
C         57.65538        31.60655         0.27642
C         56.41333        30.90556         0.38459
C         57.68227        33.01528         0.22087
C         56.45729        33.74716         0.27739
C         57.68424        35.87851         0.23569
C         56.48454        35.18225         0.31602
C         57.70315        37.39010         0.39768
C         56.36632        38.03824        -0.03989
C         57.57025        40.23152        -0.36159
C         56.38933        39.55464         0.01640
C         57.56895        41.62988        -0.51303
C         56.37681        42.37389        -0.30808
C         57.53770        44.54515        -0.57891
C         56.39106        43.82100        -0.26564
C         57.58934        45.97469        -0.44898
C         56.38740        46.69259        -0.09714
C         57.57226        48.83768        -0.41125
C         56.41254        48.13857        -0.07736
C         57.50353        50.26076        -0.65984
C         56.36220        50.97974        -0.51013
C         59.45685        24.66350        -1.94034
C         58.34387        25.32282        -1.36769
C         59.77257        27.30777        -1.00230
C         58.50736        26.64722        -0.86101
C         59.93689        28.71497        -0.63738
C         58.90821        29.36072         0.21658
C         60.10505        31.58127        -0.21075
C         58.97466        30.87437         0.50088
C         60.14534        33.03368        -0.07937
C         58.92832        33.74685         0.10755
C         60.17125        35.88187        -0.04359
C         58.92960        35.17268         0.09814
C         60.17856        37.32371        -0.22976
C         58.87074        38.00247        -0.35069
C         60.10360        40.20139        -0.77399
C         58.81833        39.47523        -0.66278
C         60.07573        41.63134        -0.97950
C         58.76876        42.31215        -1.02926
C         60.03330        44.55045        -1.08691
C         58.73965        43.84811        -1.09007
C         60.03431        45.99179        -0.94887
C         58.80324        46.68728        -0.69023
C         60.02866        48.81004        -0.79119
C         58.81250        48.11869        -0.64295
C         60.69379        25.28718        -2.00938
C         60.84966        26.60084        -1.55488
C         60.95529        29.47946        -1.15060
C         61.04809        30.89108        -0.91934
C         61.35110        33.74770        -0.18019
C         61.36352        35.13848        -0.13799
C         61.31968        38.07317        -0.45645
C         61.28170        39.47163        -0.69560
C         61.22066        42.39315        -1.18298
C         61.19709        43.80466        -1.23746
C         61.22437        46.73067        -1.09000
C         61.22179        48.12089        -1.00217
O         58.57845        28.63319         1.44894
O         23.91713        39.13315        -1.76653
O         44.03640        46.84943         1.93989
O         30.01238        37.47448        -0.33022
O         54.77611        37.78666         2.02276
O         50.93012        29.60047         2.57258
O         31.72283        29.85780        -3.06904
O         39.48108        31.86775         0.94542
O         26.96296        43.10286         2.59617
O         33.61185        26.64534        -2.13004
O         53.50373        33.43438        -1.33215
O         37.59351        28.55697         1.52534
O         48.58699        22.37953         3.19740
O         51.17851        24.81488         2.71089
O         53.41586        46.23380         1.90956
O         41.24979        22.81483        -0.72281
O         25.50212        32.31621        -3.48105
O         33.45178        40.07293        -3.26560
O         55.45925        49.81851         1.45257
O         36.73615        38.81147        -3.12755
O         50.80612        33.28866        -1.46997
O         58.51198        43.03147        -2.28257
O         42.80226        23.02663         2.71309
O         36.96079        52.90837        -1.32699
O         55.31544        27.88636         1.92840
O         43.64072        44.70419        -1.81497
O         46.95797        44.02354         1.66823
O         35.72786        49.09757         1.44540
O         58.60076        38.44984        -1.72268
O         31.13821        27.44371         0.62070
O         54.52083        35.30734         1.77414
O         46.86894        25.20316         3.19521
O         35.76673        44.43298        -2.75137
O         53.45317        22.37246         1.11081
O         37.28321        18.66106        -1.22755
O         23.42004        42.14679        -0.07963
O         41.27014        39.75581        -2.75698
O         33.81771        33.45183        -3.22708
O         39.14701        34.46913        -2.57713
O         37.70358        20.27905         2.08838
O         27.79937        37.69004        -3.26238
H         26.91152        37.42488        -3.58439
O         33.64081        35.26129        -0.07638
H         34.45050        35.10998         0.46992
O         46.47644        20.73934         3.70562
H         47.31902        21.17008         3.98679
O         22.58464        36.26296        -2.80047
H         22.49458        35.44496        -3.33440
O         31.17835        42.69410        -2.90944
H         31.69718        43.48876        -3.19758
O         49.14378        31.61278         2.52440
H         49.82651        31.01293         2.92401
O         39.97666        54.42946         2.15768
H         40.75629        53.98157         2.54825
O         48.95836        27.15332         3.53690
H         49.74950        26.69824         3.89770
O         34.68282        18.63653        -1.43347
H         35.43870        18.85732        -2.02397
O         38.15521        45.29966        -2.86827
H         38.15650        44.57756        -3.53151
O         46.78873        39.54686        -2.22297
H         47.66446        39.10165        -2.36962
O         39.24652        55.41407        -1.29113
H         38.44026        55.78481        -1.70735
O         55.46139        44.29956         1.87381
H         54.78628        44.85466         2.33640
O         35.75051        26.82850         1.70927
H         36.12711        27.62015         2.16603
O         37.72961        23.01817         2.18187
H         37.71032        22.02461         2.37261
O         33.29148        35.88694        -3.68209
H         32.63871        36.44408        -4.16468
O         37.71193        45.32711         0.72977
H         37.80869        46.04768         1.38768
O         40.83903        32.56471        -2.39196
H         40.57835        33.26481        -3.03708
O         22.91156        31.70129        -3.83296
H         23.81269        31.98932        -4.12473
O         49.18711        38.16880        -1.92054
H         49.19647        37.23299        -2.21949
O         44.86671        32.04476         2.37341
H         44.94305        31.16354         2.79892
O         46.60992        48.13532        -1.52639
H         47.41540        47.62463        -1.75688
O         24.10733        44.58041         4.58458
H         24.25676        45.40299         5.09664
O         56.09913        37.66440        -1.41472
H         56.87364        37.97484        -1.95220
O         51.30896        39.63298         2.18304
H         52.22161        39.81746         2.52561
O         43.78587        38.44005         1.27114
H         43.80770        37.55562         1.69622
O         50.12078        48.96946         2.41111
H         50.22626        48.05926         2.76312
O         32.65636        44.95313        -2.67103
H         33.56144        45.12113        -3.01883
O         36.18224        48.62485        -2.12140
H         36.79854        48.17809        -2.74057
O         48.37246        33.72574        -1.68313
H         49.19885        33.70125        -2.22490
O         54.00291        40.12483         2.18943
H         54.58588        39.48339         2.66572
O         57.92219        37.69779         1.79461
H         57.20825        37.27875         2.32205
O         36.39833        35.35591         0.48287
H         36.55262        36.28115         0.77270
O         42.12346        45.40965         1.47109
H         42.69596        45.88198         2.15466
O         47.64030        50.32448         2.28347
H         48.47882        49.90172         2.60099
O         31.46749        38.16684        -3.71062
H         32.10315        38.85135        -4.03747
O         59.24968        31.04080         1.91999
H         58.90318        30.22994         2.36575
O         40.53013        42.14557        -3.24441
H         41.09094        41.43129        -3.63168
O         39.58744        17.69321        -1.03783
H         38.79898        17.75831        -1.63357
O         53.79921        42.46402        -1.77008
H         52.93023        42.85489        -2.00316
H         22.90542        23.76552         0.40385
H         20.79863        25.02971         0.22739
H         20.79037        27.38163        -0.49325
H         20.79317        29.10716        -1.21731
H         20.75807        31.29234        -2.23044
H         20.96245        32.98790        -1.05634
H         20.85926        35.38017        -0.61253
H         21.06380        37.09561         0.27605
H         21.20798        39.30774         1.29533
H         21.36776        41.01383         2.30597
H         21.59071        43.19906         3.34172
H         21.46581        45.12467         3.59999
H         23.37772        48.95377         3.34985
H         21.36532        47.56527         3.66410
H         24.50582        22.77016         0.36565
H         24.97914        49.97800         3.27073
H         26.58442        21.53855         0.53101
H         26.93532        51.34662         2.83813
H         30.29152        19.32391         0.76671
H         28.20604        20.56319         0.61838
H         30.42191        53.76928         2.04614
H         28.43832        52.42521         2.42865
H         32.05979        18.50567         1.44350
H         31.97061        54.84874         1.58743
H         34.14339        17.21946         1.18910
H         33.99221        56.13571         1.22523
H         37.62303        14.97899         0.95958
H         35.67578        16.06081        -0.00031
H         37.65490        58.39220         1.16803
H         35.58979        57.15288         1.01490
H         39.07087        14.18606         1.94645
H         39.33527        59.37165         1.22118
H         43.29498        14.21401         2.72326
H         41.11224        13.04759         2.73159
H         43.61207        59.38839         0.87069
H         41.48616        60.57018         1.26059
H         45.01985        15.02268         2.15069
H         45.22585        58.47725         0.42765
H         47.14172        16.22038         1.84108
H         47.31656        57.26740         0.20116
H         50.41778        18.44295        -0.23456
H         48.45093        17.20004         0.54262
H         50.99706        55.10528        -0.40492
H         48.90431        56.31432        -0.24673
H         51.68795        19.61855        -1.19415
H         52.59258        54.14954        -0.58811
H         53.69100        20.82266        -1.84336
H         54.71614        52.96863        -0.49056
H         57.63560        22.85219        -2.34352
H         55.54258        21.66567        -1.93781
H         58.37261        50.75548        -1.11409
H         56.32920        52.01252        -0.88270
H         59.36078        23.63826        -2.31976
H         60.05749        49.90484        -0.71938
H         61.55474        24.75214        -2.43289
H         61.83915        27.07145        -1.62689
H         61.70526        29.02941        -1.81507
H         61.87361        31.43233        -1.40401
H         62.30074        33.20496        -0.28449
H         62.32768        35.65739        -0.22323
H         62.30962        37.59821        -0.41599
H         62.24575        39.98743        -0.80430
H         62.20227        41.90211        -1.23082
H         62.16716        44.31435        -1.31195
H         62.17506        46.21696        -1.28240
H         62.16329        48.67698        -1.10794
