         661
 CSIRO Nanostructure Databank - Neutral Graphene Oxide Data Set
C          6.06042        31.70744        -0.00989
C          6.03917        33.06837        -0.14909
C          8.53137        27.48095         0.66514
C          8.50187        28.87369         0.69604
C          7.31089        29.60873         0.42991
C          8.47991        31.79127         0.41214
C          7.28034        31.00157         0.28342
C          8.46544        33.16459         0.27603
C          7.23518        33.86151        -0.01027
C          8.43200        36.02455        -0.13326
C          7.22038        35.24992        -0.13792
C          8.42576        37.41543        -0.37887
C         10.94539        23.19286         0.43555
C         10.91716        24.56840         0.37815
C          9.72062        25.33220         0.58874
C         11.03477        27.40977         0.96470
C          9.73357        26.71255         0.74733
C         11.06483        28.91151         0.96764
C          9.74576        29.63262         0.97916
C         11.01477        31.80460         0.49096
C          9.74096        31.11379         0.79548
C         10.98590        33.19742         0.35572
C          9.70007        33.95708         0.65101
C         10.86958        36.06938        -0.07334
C          9.67613        35.36361         0.09394
C         10.86969        37.43961        -0.45144
C          9.62495        38.15329        -0.52242
C         10.79997        40.28343        -1.03093
C          9.62681        39.57512        -0.70465
C         10.88576        41.68449        -1.10572
C         13.32158        18.88819         0.21731
C         13.31405        20.25609        -0.01934
C         12.14839        21.04632         0.27970
C         13.37790        23.12650        -0.12986
C         12.14046        22.42614         0.17557
C         13.40717        24.54222        -0.14225
C         12.12395        25.34879        -0.09274
C         13.42569        27.46489         0.11687
C         12.32494        26.63081         0.72955
C         13.44677        28.88982         0.12283
C         12.27444        29.64237         0.52641
C         13.41981        31.78924         0.02085
C         12.23518        31.06530         0.34912
C         13.40079        33.19527        -0.08004
C         12.18656        33.90098         0.13981
C         13.42139        36.11294        -0.15329
C         12.15099        35.37675         0.16893
C         13.31274        37.44216        -0.78152
C         12.09287        38.09026        -0.85348
C         13.23401        40.18575        -1.82872
C         11.98928        39.46938        -1.39676
C         13.29661        41.66627        -1.76145
C         12.11604        42.41421        -1.31190
C         13.43717        44.46329        -0.47058
C         12.17131        43.75661        -0.92165
C         13.25752        45.95951        -0.04320
C         15.84008        14.67080         0.88325
C         15.75620        15.99915         0.31220
C         14.57180        16.68346         0.30129
C         15.65566        18.73781        -0.85684
C         14.39901        18.03451        -0.26743
C         15.68441        20.19672        -0.71967
C         14.53890        20.93054        -0.42506
C         15.76196        23.10076        -0.64128
C         14.56988        22.39141        -0.36368
C         15.80590        24.51248        -0.64236
C         14.61621        25.23003        -0.31933
C         15.83695        27.44480        -0.69391
C         14.65019        26.70540        -0.16628
C         15.66771        28.88618        -1.13280
C         14.59897        29.58785        -0.32446
C         15.71955        31.74608        -1.02775
C         14.74482        31.05967        -0.05306
C         15.86127        33.20828        -0.66201
C         14.63854        33.94080        -0.34275
C         15.92512        36.10154        -0.32234
C         14.64614        35.31645        -0.37339
C         15.85005        37.44197        -1.02650
C         14.54245        38.00918        -1.36547
C         15.80030        40.19307        -1.85042
C         14.53370        39.43846        -1.88072
C         15.76829        41.58168        -2.14134
C         14.47194        42.24226        -2.19525
C         15.79443        44.96103        -1.15581
C         14.58719        44.38266        -1.43479
C         15.89449        45.92498         0.00075
C         14.59058        46.68813         0.16986
C         15.85675        48.78263         0.58651
C         14.62100        47.99950         0.52223
C         15.87429        50.10517         1.02416
C         18.21352        10.46424         2.01523
C         18.25194        11.88722         1.50421
C         17.07296        12.62095         1.44700
C         18.34325        14.73608         0.91860
C         17.02937        14.00101         1.05622
C         18.26641        15.95248         0.04341
C         16.98189        16.53775        -0.34524
C         18.23183        18.68623        -1.36456
C         16.94234        17.93250        -0.96547
C         18.26651        20.13031        -0.89273
C         16.99633        20.88509        -0.72389
C         18.22792        23.08515        -1.38864
C         16.96257        22.34540        -1.04980
C         18.23777        24.55679        -1.24670
C         17.02988        25.20881        -1.01779
C         18.23700        27.41712        -1.53925
C         16.95197        26.65325        -1.29128
C         18.21837        28.88612        -1.29523
C         17.00963        29.59656        -1.13977
C         18.25804        31.68848        -1.15221
C         17.03811        31.00277        -1.07962
C         18.23826        33.15909        -1.45034
C         17.05571        33.86842        -0.82450
C         18.29051        35.97324        -1.03386
C         17.13028        35.30516        -0.73691
C         18.26919        37.40997        -1.35778
C         16.99711        38.13234        -1.34321
C         18.26046        40.31858        -1.56948
C         17.02976        39.54943        -1.65927
C         18.24502        41.75145        -1.72692
C         17.00148        42.27318        -2.19167
C         18.26036        44.81008        -1.22257
C         17.01037        44.45176        -1.72169
C         18.24218        46.18545        -0.75701
C         17.09903        46.80421        -0.25524
C         18.21683        49.00622        -0.09076
C         17.06700        48.19275         0.08369
C         18.22432        50.33533         0.33408
C         17.06449        50.90103         0.96508
C         18.31113        53.01499         1.43857
C         17.11871        52.22350         1.45272
C         18.35291        54.30584         2.00925
C         20.80751         6.25940         2.67217
C         20.81846         7.61922         2.48563
C         19.56104         8.41408         2.75630
C         20.73228        10.43925         1.84673
C         19.56935         9.80007         2.14950
C         20.71163        11.80418         1.32633
C         19.49346        12.47332         1.11779
C         20.76765        14.51894         0.42725
C         19.45880        13.79100         0.38368
C         20.78463        15.90694         0.04812
C         19.51959        16.52098        -0.45993
C         20.89649        18.69291        -1.10316
C         19.54445        17.91448        -1.06693
C         20.79848        20.20133        -0.84509
C         19.53111        20.87413        -1.23087
C         20.75137        23.11761        -1.05865
C         19.54321        22.35496        -1.38087
C         20.82739        24.53083        -1.54548
C         19.48630        25.28081        -1.39709
C         20.78231        27.41770        -1.66525
C         19.49390        26.65118        -1.47164
C         20.68356        28.79167        -1.01950
C         19.44128        29.57427        -1.19884
C         20.75519        31.68835        -1.00983
C         19.48007        30.98088        -1.09912
C         20.75160        33.13115        -1.10094
C         19.55782        33.84283        -1.21369
C         20.73435        36.00806        -1.14107
C         19.55937        35.28002        -1.16418
C         20.70404        37.47302        -0.77657
C         19.53588        38.19405        -1.38122
C         20.69975        40.38942        -1.12099
C         19.49427        39.66954        -1.31401
C         20.67560        41.83446        -1.15742
C         19.45124        42.53828        -1.43636
C         20.69396        44.64808        -0.99883
C         19.47222        43.99072        -1.29861
C         20.73079        46.13901        -1.02104
C         19.45824        46.95341        -1.00921
C         20.69212        49.00416        -0.16866
C         19.41441        48.47929        -0.85436
C         20.72896        50.51577        -0.20111
C         19.42084        51.19270         0.15868
C         20.73322        53.18233         0.90088
C         19.50388        52.48885         0.84246
C         20.75811        54.49698         1.49354
C         19.55133        55.05584         2.02393
C         20.78667        57.08460         2.65968
C         19.60484        56.36624         2.58498
C         20.74446        58.46112         3.28283
C         23.31707         3.43357         2.89221
C         22.07129         4.15738         2.92491
C         23.17661         6.08969         1.80231
C         22.00236         5.46546         2.51855
C         23.21060         7.59567         1.92203
C         22.05322         8.30405         2.14707
C         23.24188        10.40416         1.42358
C         22.07775         9.81470         2.19515
C         23.18012        11.73382         1.02826
C         21.94729        12.45705         1.04081
C         23.22215        14.57049         0.71487
C         21.95759        13.85616         0.73147
C         23.15788        16.06624         0.86689
C         21.94180        16.63371         0.13834
C         23.12853        18.87779         0.11205
C         21.90247        18.08560        -0.12944
C         23.19907        20.27701        -0.39595
C         21.88191        20.95678        -0.51922
C         23.09393        23.19834        -0.00451
C         21.75135        22.44584        -0.16388
C         23.02862        24.72280        -0.02382
C         22.00127        25.32168        -0.99044
C         23.21042        27.43728        -0.90414
C         21.99603        26.67267        -1.15859
C         23.21390        28.79128        -0.77395
C         21.93836        29.53552        -0.68892
C         23.22632        31.70246        -0.83940
C         21.95458        31.00839        -0.82326
C         23.21289        33.14413        -0.97530
C         22.01400        33.82986        -1.07814
C         23.27515        36.10341        -1.03504
C         22.01043        35.29879        -1.27241
C         23.16581        37.54490        -0.74529
C         21.98556        38.24262        -0.91878
C         23.16014        40.39845        -0.69759
C         21.93458        39.67920        -0.89416
C         23.15330        41.82584        -0.71407
C         21.91669        42.53010        -0.92014
C         23.20403        44.64245        -0.77779
C         21.93281        43.95429        -0.87676
C         23.23381        46.13094        -0.85993
C         21.95727        46.81674        -0.43388
C         23.21597        49.02179        -0.18019
C         21.96996        48.34556        -0.72931
C         23.19036        50.43457         0.07975
C         21.99919        51.16651         0.15742
C         23.22236        53.23431         0.66697
C         21.97454        52.54238         0.52494
C         23.17917        54.67820         0.95499
C         21.95871        55.25040         1.55094
C         23.26965        57.22412         2.34422
C         22.00217        56.52783         2.15238
C         23.29046        58.49559         3.01899
C         22.09117        59.12557         3.44195
C         23.37263        61.04233         4.23969
C         22.14222        60.38536         4.03423
C         24.48357         4.05020         2.54582
C         25.66519         6.11953         1.92766
C         24.50063         5.43619         2.12384
C         25.67709         7.53074         1.56395
C         24.46336         8.26560         1.61471
C         25.67651        10.26057         0.87080
C         24.46436         9.64920         1.31005
C         25.66511        11.66446         0.41897
C         24.37617        12.42392         0.48436
C         25.70644        14.58710         0.55041
C         24.41690        13.90288         0.58309
C         25.75127        15.98069         0.67989
C         24.45220        16.73568         0.36937
C         25.37583        19.06691         0.99317
C         24.36587        18.23645         0.59192
C         25.62955        20.38296         0.47093
C         24.45709        21.02986        -0.17905
C         25.72963        23.15613        -0.17796
C         24.41322        22.49752         0.01306
C         25.72347        24.57669        -0.37719
C         24.46834        25.41936        -0.03498
C         25.72584        27.43132        -0.81415
C         24.47057        26.61807        -0.99978
C         25.70075        28.79380        -0.73322
C         24.44472        29.53209        -0.33942
C         25.69468        31.67960        -0.61623
C         24.43574        31.00046        -0.70655
C         25.75519        33.15255        -0.71181
C         24.49165        33.90341        -0.96924
C         25.60170        35.99746        -0.18877
C         24.49637        35.36076        -0.65473
C         25.57833        37.45329         0.09692
C         24.32735        38.25041        -0.20475
C         25.54130        40.40632        -0.02141
C         24.36029        39.71242        -0.36096
C         25.57249        41.80986        -0.12926
C         24.38588        42.52168        -0.48872
C         25.73254        44.67708        -0.75808
C         24.39865        43.95657        -0.60431
C         25.72365        46.13828        -0.35265
C         24.47741        46.89382        -0.52232
C         25.58541        48.91386         0.56201
C         24.38561        48.29234        -0.05014
C         25.58317        50.41188         0.85580
C         24.51701        51.15421         0.05010
C         25.70139        53.25176         0.76856
C         24.44788        52.59304         0.50121
C         25.74018        54.60417         1.12527
C         24.50114        55.39467         1.17910
C         25.74864        57.24969         2.26993
C         24.48370        56.64283         1.95628
C         25.75422        58.51180         2.89411
C         24.54501        59.14995         3.25339
C         24.55577        60.43403         3.87023
C         26.87021         8.17943         1.20920
C         28.15247        10.17053         0.31355
C         26.87801         9.54017         0.84288
C         28.15317        11.68963         0.29111
C         26.94335        12.41039         0.39092
C         28.17618        14.50802         0.20658
C         26.93670        13.82691         0.40234
C         28.21581        15.92931         0.25371
C         27.03716        16.62905         0.63213
C         28.29563        18.77867         0.53290
C         27.25370        17.97996         0.98643
C         28.22651        20.29561         0.75022
C         26.87993        20.98117         0.35001
C         28.17853        22.99504        -0.44371
C         26.89053        22.36960        -0.09890
C         28.17771        24.47458        -0.77481
C         26.91564        25.24193        -0.65463
C         28.18320        27.36239        -0.88559
C         26.97631        26.69179        -0.80866
C         28.25316        28.83603        -0.95712
C         26.93795        29.56954        -0.84419
C         28.13029        31.68523        -0.11032
C         26.88871        30.99899        -0.50113
C         28.13410        33.16351        -0.03987
C         26.94558        33.84912        -0.19272
C         28.12855        36.05299        -0.11977
C         26.85401        35.28173         0.27031
C         28.05976        37.51579         0.31463
C         26.84058        38.18738         0.23557
C         28.04055        40.38731         0.65752
C         26.72815        39.64212         0.48045
C         28.08839        41.82572         0.39190
C         26.76717        42.57434         0.41554
C         28.11009        44.63448         0.03486
C         26.89715        43.96767        -0.12105
C         28.15540        46.09035        -0.00945
C         26.88965        46.78836        -0.05144
C         28.15177        48.95129         0.39164
C         26.88879        48.18430         0.44854
C         28.14041        50.37090         0.50482
C         26.92847        51.09532         0.65001
C         28.19974        53.19371         0.83710
C         26.94100        52.49514         0.73150
C         28.19701        54.56182         1.20106
C         26.98560        55.25645         1.43715
C         26.96224        56.57860         1.94261
C         29.35923        12.37242         0.09260
C         30.60176        14.51796        -0.21170
C         29.39414        13.78556         0.01228
C         30.63017        15.91395        -0.21220
C         29.42660        16.65781         0.04492
C         30.69681        18.80826        -0.08470
C         29.45558        18.08269         0.09424
C         30.70264        20.20313         0.04428
C         29.46738        20.96406         0.15603
C         30.71834        23.14229         0.00539
C         29.45891        22.30855        -0.13777
C         30.67432        24.53481        -0.59550
C         29.47877        25.19440        -0.74378
C         30.74985        27.42430        -0.85939
C         29.45484        26.63671        -1.01486
C         30.70840        28.87580        -0.54151
C         29.50940        29.53481        -0.57287
C         30.68772        31.74279        -0.05970
C         29.44504        30.94671        -0.12167
C         30.59939        33.12142         0.21771
C         29.37155        33.84261         0.22364
C         30.51504        35.97700         0.67161
C         29.38041        35.29545         0.32415
C         30.46520        37.41545         1.07726
C         29.26294        38.20888         0.61547
C         30.51798        40.31147         0.89887
C         29.29950        39.61801         0.67354
C         30.59961        41.79285         0.76887
C         29.30997        42.50005         0.43416
C         30.61005        44.63261         0.29121
C         29.31568        43.91551         0.29937
C         30.62715        46.11886         0.20871
C         29.33012        46.81245         0.13163
C         30.60109        48.95573         0.02899
C         29.34655        48.25317         0.17472
C         30.59567        50.34847         0.16425
C         29.39680        51.07885         0.42548
C         29.40271        52.47178         0.63926
C         31.84178        16.66285        -0.43642
C         33.20962        18.70363        -0.70510
C         31.89060        18.03539        -0.37548
C         33.27660        20.17764        -0.34783
C         31.99591        20.93301        -0.00261
C         33.18817        23.04555        -0.46311
C         32.00876        22.39108        -0.24022
C         33.21105        24.51309        -0.82706
C         31.92489        25.27071        -0.57959
C         33.16876        27.41265        -0.24452
C         31.94276        26.64651        -0.52310
C         33.15823        28.89053        -0.34053
C         31.95952        29.58156        -0.29371
C         33.13558        31.69319         0.19131
C         31.94606        31.03614        -0.09081
C         33.14676        33.16326         0.28546
C         31.84615        33.91102         0.32706
C         33.05318        36.08414         0.70513
C         31.80925        35.26853         1.02548
C         33.02679        37.46671         0.66176
C         31.76357        38.15279         0.85768
C         33.46739        40.61799         0.58444
C         31.66670        39.51373         1.14638
C         33.19224        41.85047         0.08320
C         31.92205        42.54076         0.41911
C         33.01661        44.63434        -0.55718
C         31.73481        43.84970        -0.34420
C         32.99433        46.03861        -0.57619
C         31.84130        46.82401        -0.27021
C         31.79970        48.21466        -0.29008
C         34.42376        20.94929        -0.82480
C         35.65663        23.08285        -0.87581
C         34.45778        22.34224        -0.68909
C         35.76976        24.46276        -0.40842
C         34.44031        25.19346        -0.25392
C         35.68343        27.44204        -0.71608
C         34.47108        26.69702        -0.19147
C         35.63562        28.88661        -0.25267
C         34.44129        29.54670        -0.14896
C         35.59585        31.77263        -0.17479
C         34.43719        30.94971         0.41219
C         35.66411        33.16235         0.44166
C         34.38641        33.86142         0.75612
C         35.53040        35.99637         0.13769
C         34.38390        35.38880         0.93899
C         35.45375        37.41888        -0.29332
C         34.20176        38.20056         0.02498
C         35.56786        40.34335        -0.69027
C         34.36452        39.68611        -0.10780
C         35.42740        41.73710        -0.98310
C         34.25335        42.48353        -0.70544
C         34.17232        43.88972        -0.88876
C         36.98530        25.28569        -0.42837
C         38.15954        27.45448        -0.40166
C         36.98902        26.69908        -0.44238
C         38.10053        28.93171        -0.67307
C         36.93845        29.56553         0.11302
C         38.10515        31.78252        -0.09891
C         36.91823        31.06495        -0.05256
C         38.11911        33.21830        -0.02812
C         36.90689        33.94272         0.21298
C         38.10785        36.15059         0.17461
C         36.85426        35.31993         0.19151
C         37.93196        37.49261        -0.50229
C         36.73327        38.15389        -0.58117
C         36.68297        39.55570        -0.94647
C         39.38383        29.70532        -0.47775
C         40.58820        31.85649        -0.37652
C         39.37389        31.05929        -0.28256
C         40.56390        33.21378        -0.41635
C         39.33089        33.97068        -0.24205
C         39.31257        35.35253        -0.25112
O         26.33851        18.55947         1.86644
O         17.81314        20.44377         0.45537
O         23.72489        22.80946         1.27837
O         24.13116        20.50836        -1.51240
O         21.09790        28.92997         0.37726
O         34.99529        24.59405         0.89591
O         35.14124        33.21517         1.82161
O         26.13617        48.21376         1.73625
O         27.16433        40.06092         1.82209
O         23.78082        55.49677        -0.10618
O         19.97784        51.20927        -1.21298
O         25.38957        33.59198        -2.09340
O         31.41421        42.50535         1.76432
O         24.63369        37.80252         1.18456
O         19.02866        37.64985        -2.62619
O         17.33982        27.01841        -2.63866
O         19.58728        16.75211        -1.93741
O         24.85178        11.88362        -0.80509
O         11.16394        28.12926         2.23869
O         17.32919        22.62419        -2.44786
O         27.61493        29.39790        -2.16090
O         16.78444        16.76539        -1.80777
O         32.92517        20.47433         1.04858
O         22.83363        35.77160        -2.40541
O         16.94634        43.54810        -2.77122
O         20.16336        46.62517        -2.26293
O         33.66457        38.89945        -1.16468
O         14.46292        43.60385        -2.56515
O         30.89666        45.40944         1.48994
O         14.62098        18.20075        -1.71267
O         12.29378        39.65793        -2.82893
O         35.18229        36.33006        -1.25107
O         23.95186        46.71700        -1.98416
O         32.79240        40.13614         1.69463
O         12.94257        36.01520         1.24587
O         22.04062        18.81912         1.15585
O         14.48616        38.32497        -2.81184
O         19.63854        21.42421        -2.58585
O         32.62670        33.87367        -0.90587
O          9.65300        30.52814         2.15010
O         28.17600        23.47062        -1.85496
O         30.22744        27.07637        -2.18753
O         28.66383        31.07082         1.13969
O         33.87199        27.10846         1.06051
O         15.76674        27.20677         0.72896
O         35.52278        27.45317        -2.16194
H         36.22218        28.06249        -2.50914
O         12.47818        46.65647        -1.01713
H         13.00617        46.76285        -1.83461
O         33.38897        24.57209        -2.27740
H         32.52278        24.40852        -2.70728
O         21.97055        48.54744        -2.15322
H         22.73892        48.03889        -2.51582
O         22.96906        16.36931         2.27009
H         22.63688        17.29830         2.32079
O         19.86892        59.31081         2.51541
H         20.23893        59.38948         1.61216
O         15.15657        28.86607        -2.49615
H         15.05324        29.81218        -2.77111
O         24.36411        16.62967        -1.08704
H         25.15041        17.05650        -1.48760
O         19.08898        13.52347        -0.99552
H         19.84543        13.09037        -1.44296
O         18.77988        15.11160         2.26033
H         18.05096        15.60229         2.69462
O         26.46554        42.72904         1.85808
H         26.57430        41.82874         2.25714
O         31.82624        35.03845         2.47685
H         32.75545        35.17927         2.78736
O         37.17750        29.31113         1.52248
H         36.44691        29.75821         2.01471
O         28.36629        20.52505         2.18163
H         27.67176        19.98700         2.62571
O         11.84189        25.79643        -1.44887
H         11.72602        25.00546        -2.01614
O         35.29581        31.91127        -1.58575
H         36.04352        32.36880        -2.02385
O         18.18595        18.79978        -2.80177
H         18.06184        17.88481        -3.14522
O         24.43226        29.51732         1.12946
H         24.33894        28.58262         1.41801
O         24.52119        26.04671        -2.33175
H         24.54972        26.77644        -2.98515
O         26.77059        35.25059         1.71869
H         27.61843        34.90580         2.07176
O         34.67945        30.77531         1.83990
H         33.96406        30.20745         2.19726
O         16.14370        45.16728         1.22062
H         16.20425        45.80682         1.96031
O         21.45748        18.52366        -2.41518
H         20.79058        18.82015        -3.07113
O         25.22862        50.57341         2.24849
H         25.68553        49.84962         2.73727
O         22.42775        25.05339         1.26736
H         21.81093        24.31783         1.50544
O         22.95169         5.81737         0.36773
H         22.06586         6.17197         0.14172
O         31.29698        43.49675        -1.69147
H         30.36369        43.19543        -1.64970
O         30.30785        37.35783         2.54690
H         30.84950        36.59110         2.86420
O         34.64562        35.63519         2.35315
H         35.17012        34.85907         2.67595
O         38.36813        36.50507         1.60223
H         38.62965        35.67937         2.06402
O         16.11608        36.40681         1.10908
H         15.23860        36.37083         1.55044
O         20.55607        48.68766         1.24928
H         21.28296        49.13770         1.73286
O         18.41146         7.67393         2.32875
H         18.51121         7.46603         1.37779
O         28.37660         9.68827        -1.02724
H         27.61141         9.95884        -1.57620
O         37.74527        29.10774        -2.09744
H         38.50863        28.80041        -2.63124
O         15.38495        31.17533         1.25978
H         14.81227        30.72686         1.91767
O         20.43526        37.51936         0.67081
H         21.24119        37.22977         1.14972
O         28.15210        36.06937        -1.57059
H         29.04282        36.34758        -1.86947
O         20.92905        27.64138        -3.09178
H         20.95478        26.75411        -3.51734
O         13.89170        43.73756         0.71420
H         13.12798        43.64446         1.32158
O         33.47600        18.55415        -2.11321
H         32.66681        18.78437        -2.61383
O         30.72576        23.43145         1.45247
H         30.88737        22.58750         1.92860
O          9.64448        34.11053         2.10685
H          9.65413        33.21077         2.50002
O         17.98343        33.23698        -2.90769
H         18.21064        34.14709        -3.19875
O         22.32279        10.16635         3.60291
H         22.38679        11.14388         3.65328
O         21.16607        22.48225         1.19377
H         21.84107        22.09615         1.79897
O         12.83125        26.20385         2.01562
H         12.62013        26.92879         2.65116
O         17.54580        10.43880         3.29081
H         18.05820        10.99469         3.91284
O         25.98186        44.67193        -2.21224
H         25.33391        45.30706        -2.60173
O         19.28773        49.01122        -2.17705
H         20.08430        48.72596        -2.68398
O         15.13008        31.68177        -2.36061
H         15.75472        32.13507        -2.97055
O         21.06062        24.49136        -3.00708
H         20.50956        23.76468        -3.37416
O         21.93512        46.54847         0.98661
H         21.17216        47.03285         1.38746
O         24.73023        25.93741         1.27846
H         24.00214        25.61311         1.86541
O         24.97371        51.12984        -1.33472
H         24.32616        51.62918        -1.87582
H          5.13083        31.12850        -0.11290
H          5.09220        33.58440        -0.36606
H          7.59285        26.93926         0.46833
H          6.37569        29.04470         0.28993
H          6.26589        35.76412        -0.32728
H          7.46139        37.93434        -0.48735
H         10.03463        22.64556         0.72494
H          8.75228        24.80690         0.57585
H          8.68089        40.12388        -0.57960
H          9.99501        42.27083        -0.82923
H         12.48449        18.42460         0.76097
H         11.22554        20.52052         0.56736
H         11.22873        44.20371        -0.56408
H         12.66690        45.97896         0.91112
H         14.89298        14.15643         1.11075
H         13.70398        16.24571         0.81978
H         13.67446        48.53615         0.69545
H         14.95384        50.55781         1.42302
H         17.58136         9.83978         1.32522
H         16.12385        12.12102         1.69389
H         16.21285        52.65891         1.90187
H         17.44225        54.73277         2.45380
H         19.88608         5.77109         3.02497
H         19.45380         8.53783         3.87088
H         18.67933        56.81370         2.97637
H         20.27116        58.37641         4.29915
H         23.32391         2.38596         3.22461
H         21.18260         3.66476         3.34710
H         23.38475        62.03589         4.70892
H         21.20623        60.87111         4.34392
H         25.44204         3.51591         2.62568
H         26.63250         5.61016         2.05973
H         26.71219        59.00600         3.11384
H         25.51928        60.93442         4.04370
H         27.80811         7.60606         1.17282
H         29.02364         9.81344         0.92241
H         29.15448        55.08181         1.35346
H         27.91615        57.08333         2.15767
H         30.29278        11.80093        -0.01559
H         31.53562        13.96011        -0.37752
H         31.54100        50.90439         0.07269
H         30.36234        53.00911         0.67144
H         32.76223        16.10619        -0.66918
H         34.03837        18.16913        -0.17237
H         33.92628        46.56838        -0.83040
H         32.70664        48.78159        -0.55070
H         35.30120        20.40782        -1.20739
H         36.55725        22.56127        -1.23348
H         36.27584        42.25660        -1.45407
H         35.06732        44.42792        -1.23819
H         37.95074        24.76300        -0.51693
H         39.12478        26.96914        -0.19028
H         38.85402        38.04360        -0.74816
H         37.59337        40.01467        -1.36169
H         40.33936        29.19390        -0.67916
H         41.54432        31.32257        -0.48584
H         41.50056        33.77698        -0.54286
H         40.25506        35.90041        -0.40701
