         349
 CSIRO Nanostructure Databank - Neutral Graphene Oxide Data Set
C          1.74243         3.79566        -2.36109
C          0.50215         4.48100        -2.47401
C          1.17161         6.12442        -0.74898
C          0.20309         5.57200        -1.70274
C          1.12962         7.62915        -0.38408
C         -0.00506         8.43742        -0.88193
C          1.04736        10.44056         0.02664
C         -0.08368         9.75224        -0.62220
C          1.02016        11.97424         0.15028
C         -0.19156        12.73568        -0.16192
C          1.05206        14.82514        -0.04856
C         -0.16198        14.10532        -0.21122
C          1.07037        16.31376         0.24253
C         -0.14786        17.12540        -0.11711
C          1.12996        19.21971         0.09844
C         -0.10136        18.48484        -0.08873
C          1.20008        20.58273         0.44974
C          0.00637        21.35339         0.66585
C          1.30425        23.40585         0.94272
C          0.05552        22.70007         0.88024
C          1.34667        24.82475         1.07130
C          0.13456        25.64391         1.00873
C          1.40684        27.61628         1.78943
C          0.14571        26.96447         1.28052
C          1.46077        29.12138         1.63263
C          3.95268         3.51642        -1.34989
C          2.72524         4.21108        -1.46738
C          3.65044         6.07901         0.06361
C          2.48444         5.39548        -0.59731
C          3.55798         7.55676         0.56009
C          2.37753         8.33286        -0.02109
C          3.55901        10.50713         0.15064
C          2.35478         9.72806         0.03000
C          3.52564        11.95129         0.09119
C          2.30667        12.68478         0.08960
C          3.53544        14.83567        -0.03102
C          2.28063        14.11486         0.01868
C          3.58620        16.25257        -0.17312
C          2.32535        16.98009        -0.28935
C          3.66017        19.14784         0.03878
C          2.36873        18.50836        -0.22831
C          3.67692        20.48050         0.46100
C          2.47516        21.23650         0.60528
C          3.76389        23.33726         1.00452
C          2.51813        22.65379         0.87986
C          3.79300        24.73635         1.13592
C          2.59251        25.47374         1.16841
C          3.88713        27.62932         1.62815
C          2.62833        26.98500         1.11715
C          3.91344        29.01979         1.72254
C          2.64686        29.75851         1.63167
C          6.29672         3.38329        -0.65167
C          5.05752         4.04958        -0.68259
C          6.14406         6.26121        -0.57967
C          5.02551         5.41006         0.00105
C          5.97451         7.77005        -0.58836
C          4.99195         8.33510         0.48910
C          5.99172        10.56133         0.03681
C          4.81119         9.83268         0.17123
C          6.01094        11.97658        -0.06301
C          4.75749        12.68238        -0.04972
C          5.93407        14.80793        -0.57375
C          4.73131        14.09351        -0.13241
C          6.03073        16.26820        -0.45560
C          4.80987        16.97342        -0.28562
C          6.14119        19.03452        -0.05551
C          4.87617        18.39722        -0.11258
C          6.29723        20.32497         0.70057
C          4.96767        21.06485         0.89545
C          6.34864        23.19531         1.23590
C          5.00261        22.53349         1.14813
C          6.33607        24.68237         1.39455
C          5.09488        25.50062         1.05519
C          6.37995        27.59451         1.55206
C          5.12075        26.81105         1.87950
C          6.37602        29.02296         1.64184
C          5.14502        29.70942         1.83832
C          8.72929         3.45381        -0.28097
C          7.50427         4.09286        -0.42442
C          8.71621         6.33676        -0.38922
C          7.47041         5.57288        -0.60272
C          8.65718         7.74780        -0.21018
C          7.38186         8.51863        -0.54641
C          8.52744        10.60280         0.46810
C          7.26736         9.83037         0.20909
C          8.51892        12.02243         0.05809
C          7.25555        12.65383        -0.16579
C          8.46916        14.80144        -0.69492
C          7.22607        14.03678        -0.63166
C          8.48174        16.17994        -0.77159
C          7.26001        16.93679        -0.58942
C          8.54573        19.10454        -0.68251
C          7.33379        18.36391        -0.42495
C          8.62406        20.51058        -0.40083
C          7.47406        21.19237         0.24802
C          8.91682        23.18858         0.67514
C          7.54898        22.49129         0.68125
C          8.86651        24.71554         0.88435
C          7.62377        25.44611         1.29571
C          8.76123        27.63982         0.96728
C          7.56396        26.92549         1.23000
C          8.78827        29.06675         1.13908
C          7.59473        29.72723         1.48692
C         11.16542         3.51332        -0.02157
C          9.95753         4.18003        -0.19080
C         11.14131         6.36245        -0.07216
C          9.92478         5.63883        -0.22896
C         11.10752         7.78446         0.04317
C          9.84301         8.45651         0.03718
C         11.07088        10.65734         0.11707
C          9.86294         9.87634         0.59384
C         10.99128        11.93353        -0.38114
C          9.71107        12.61678        -0.38137
C         10.81694        14.63991        -1.56427
C          9.63465        13.95489        -0.98818
C         10.63017        16.08742        -1.80606
C          9.67534        16.88673        -1.23300
C         10.96853        19.18179        -1.68243
C          9.66272        18.38331        -1.36622
C         10.90899        20.67190        -1.43030
C          9.75151        21.27694        -0.77364
C         11.11845        23.43631        -0.47257
C          9.73656        22.79475        -0.57418
C         11.18822        24.82674         0.00677
C          9.95548        25.56102         0.35931
C         11.07743        27.77704         0.06022
C          9.92927        26.93763         0.50163
C         11.18318        29.18346         0.52280
C         10.01545        29.79296         0.99890
C         13.60922         3.53541         0.24208
C         12.41469         4.20986         0.11039
C         13.55293         6.40340         0.29476
C         12.37998         5.67630         0.09267
C         13.55566         7.82542         0.27030
C         12.33348         8.50151         0.17686
C         13.60950        10.65580        -0.12727
C         12.37957         9.98547         0.43230
C         13.54767        12.00964        -0.44939
C         12.24517        12.63054        -0.85119
C         13.42421        14.93954        -1.09962
C         12.20922        14.05084        -1.38695
C         13.55303        16.42003        -1.41626
C         12.50727        17.19373        -1.96130
C         13.53743        19.28375        -1.42397
C         12.32805        18.56528        -1.70597
C         13.51526        20.68642        -1.29500
C         12.27242        21.43830        -1.39312
C         13.51582        23.58030        -1.07309
C         12.28119        22.83520        -0.88312
C         13.53699        24.94553        -0.97558
C         12.42727        25.62305        -0.30517
C         13.60074        27.85366        -0.34870
C         12.33722        27.10925        -0.39095
C         13.62920        29.20998         0.01570
C         12.42328        29.85304         0.42894
C         16.04258         3.58527         1.01425
C         14.92479         4.27627         0.26176
C         16.01470         6.45933         0.86122
C         14.73385         5.66896         0.85224
C         16.01179         7.88148         0.64277
C         14.81400         8.56716         0.34777
C         16.10200        10.68023        -0.05088
C         14.85468         9.97155         0.05228
C         15.99916        12.06643        -0.46678
C         14.76068        12.72113        -0.63140
C         15.98432        15.01535        -0.97115
C         14.69825        14.21880        -0.73218
C         15.92319        16.45961        -0.46341
C         14.72684        17.15506        -1.08242
C         16.08297        19.20363        -1.64550
C         14.76505        18.53857        -1.28940
C         16.01223        20.71021        -1.43189
C         14.77963        21.43913        -0.92998
C         16.01024        23.62994        -1.48259
C         14.71626        22.83265        -1.59973
C         16.00217        25.00839        -1.43302
C         14.74043        25.74381        -1.29842
C         16.13786        27.77267        -0.45886
C         14.79650        27.20004        -0.88140
C         16.08013        29.28987        -0.43089
C         14.88258        29.92213        -0.11612
C         18.20789         3.71158         2.20162
C         17.09057         4.32056         1.50569
C         18.30683         6.50358         1.68760
C         17.13473         5.77356         1.31307
C         18.40783         7.91631         1.30435
C         17.22982         8.62483         0.76125
C         18.49550        10.70279         0.93706
C         17.30525         9.99503         0.43523
C         18.80244        11.99846         0.49721
C         17.16746        12.91655        -0.63634
C         18.54897        14.94972        -0.28674
C         17.20403        14.27092        -0.50878
C         18.43491        16.47546        -0.24835
C         17.25425        17.16773        -0.65971
C         18.59217        19.17353        -0.90623
C         17.32186        18.51120        -1.03657
C         18.86121        20.46462        -1.43369
C         17.04141        21.49028        -1.87646
C         18.51762        23.49334        -1.47132
C         17.22542        22.89752        -1.62198
C         18.56584        24.97279        -1.57305
C         17.23511        25.79057        -1.61087
C         18.50108        27.98449        -1.58080
C         17.26506        27.20253        -1.26454
C         18.49211        29.38951        -1.00275
C         17.29337        30.00177        -0.60579
C         19.23409         4.46514         2.68511
C         20.25135         6.69925         3.17939
C         19.30224         5.89266         2.45820
C         20.24553         8.06299         3.10705
C         19.47965         8.75227         2.07362
C         20.06897        11.13613         2.74281
C         19.31107        10.21538         1.99785
C         20.02975        12.50821         2.46155
C         19.43314        12.97632         1.27504
C         20.61949        15.19120         1.07738
C         19.28047        14.48064         1.01083
C         20.73553        16.46421         0.65758
C         19.59564        17.18382         0.09168
C         20.72879        19.43238         0.27062
C         19.65074        18.59082        -0.14578
C         20.75738        20.78221        -0.01601
C         19.79708        21.36209        -0.90403
C         20.94135        23.56251        -0.99678
C         19.72644        22.79925        -1.17515
C         20.98963        24.92080        -0.94548
C         19.75708        25.71968        -1.04979
C         21.00356        28.00674        -1.19175
C         19.75678        27.22776        -1.08407
C         20.94562        29.37646        -1.14685
C         19.71759        30.06278        -0.93742
O          6.37614        23.84008         2.57849
O          0.64438         6.57640         0.51784
O          6.70263         5.86093        -1.87007
O          5.58928         8.22583         1.73067
O         18.11269        20.86612        -2.54767
O         11.53652        16.57020        -2.73541
O         14.62689        26.82798        -2.29211
O         13.81585        14.75206         0.32418
O         11.45177        21.36198        -2.60897
O         19.69553         8.23534         0.71502
O          9.95166        13.87075        -2.45708
O          2.79078         5.16617         0.81786
O          8.60112        25.01446         2.30587
O          0.78921        11.07403         1.31324
O         18.39353        12.27554        -0.80161
O          7.69053        10.10913         1.57799
O          4.85426        21.57304         2.26991
O         19.49373        26.52589         0.18147
O          2.23574        17.75562        -1.50643
O         12.21912        25.08241         1.04502
O         18.02595        25.46902        -2.82929
O          6.41619        14.25334        -1.85102
O         12.37829        12.94137        -2.30325
O         10.00220        18.83622        -2.71735
O         11.36783        27.61012        -1.38232
O         12.60646        10.14911         1.87846
H         11.75872         9.90722         2.33018
O         14.51913        22.57790        -3.01182
H         14.45157        23.43697        -3.47844
O         10.06202         9.65707         2.03023
H          9.15941         9.49151         2.40463
O          7.64061         8.97881        -1.90468
H          7.79009         8.18889        -2.46677
O          2.57920        27.32850        -0.30316
H          3.43669        27.03967        -0.69318
O          1.22258        16.40503         1.70540
H          0.48632        15.90607         2.11829
O         14.85125        21.64254         0.50209
H         14.90432        20.76754         0.93961
O         18.63209        28.13559        -3.02074
H         18.40985        27.26156        -3.42214
O          9.64471        22.65159         1.79750
H          9.33157        23.13187         2.59791
O          1.50696        27.31906         3.20746
H          0.74512        27.73196         3.66333
O         16.12747        15.13166        -2.42001
H         16.20685        14.23221        -2.80253
O         15.72739        16.47937         0.96829
H         14.93919        15.91919         1.16900
O          5.41500         5.20180         1.38242
H          4.59248         5.02420         1.89083
O         14.39425         5.45303         2.26295
H         14.20612         6.32816         2.66283
O         19.42367        14.65205        -1.39801
H         18.97348        14.93199        -2.22183
O          9.07229        23.38477        -1.72362
H          9.53322        23.05952        -2.52807
O          5.23493        25.91919        -0.33859
H          5.12485        25.13514        -0.91714
O         15.35048         4.42925        -1.12565
H         15.51656         3.53632        -1.49267
O         18.45909        14.97492         2.09878
H         18.91771        14.79056         2.94425
O          5.31820         8.07220        -1.83545
H          5.76321         7.54638        -2.53747
O         16.19207        18.98074        -3.08457
H         16.95464        19.51941        -3.39962
O          5.13381        26.46433         3.28701
H          5.83969        25.79952         3.44396
O          3.25202         7.52205         1.95576
H          4.12223         7.75771         2.40523
O         16.31204        27.31905         0.92810
H         17.24531        27.48376         1.18565
O          6.72185        19.86507         2.02133
H          6.33393        20.50021         2.67254
H          1.92436         2.90967        -2.98544
H         -0.25078         4.09388        -3.17482
H         -0.80003         6.01474        -1.75998
H         -0.85909         7.92322        -1.34264
H         -0.98398        10.31821        -0.89788
H         -1.15589        12.21181        -0.19822
H         -1.10507        14.65182        -0.35203
H         -1.11639        16.62777        -0.26941
H         -1.03874        19.04614        -0.21913
H         -0.96986        20.85210         0.62618
H         -0.88463        23.25092         1.01437
H         -0.80686        25.16847         0.69846
H         -0.78185        27.55480         1.21731
H          0.51831        29.69055         1.60218
H          4.07562         2.57593        -1.90954
H          2.69510        30.85699         1.58133
H          6.34444         2.30926        -0.89031
H          5.14784        30.80616         1.92367
H          8.76140         2.35572        -0.21369
H          7.59882        30.82137         1.60344
H         11.16993         2.41326         0.01753
H         10.03158        30.85839         1.27350
H         13.61791         2.43389         0.20369
H         12.46640        30.91604         0.71048
H         16.05007         2.48665         1.09491
H         14.86703        31.01935        -0.02695
H         18.19236         2.62383         2.36395
H         17.31045        31.07628        -0.36037
H         20.04812         3.99094         3.25326
H         20.89644         6.19693         3.91567
H         20.83618         8.65786         3.81855
H         20.68358        10.77850         3.58072
H         20.55226        13.20901         3.13039
H         21.48180        14.66962         1.51961
H         21.69911        16.98666         0.74672
H         21.52182        19.01062         0.90297
H         21.54353        21.40949         0.42629
H         21.88011        23.00244        -0.87980
H         21.94012        25.43461        -0.74465
H         21.96389        27.49182        -1.33891
H         21.87629        29.96012        -1.19532
H         19.73802        31.12544        -0.65408
