         260
 CSIRO Nanostructure Databank - Neutral Graphene Oxide Data Set
C         31.13622        32.71888        -3.16561
C         30.87158        33.61996        -2.27086
C         30.49288        36.32164        -0.49563
C         30.50321        37.52795        -0.27464
C         30.43920        40.35016         1.34794
C         30.32689        41.51305         1.79504
C         34.02702        30.51567        -4.10551
C         32.93441        31.11012        -4.19521
C         33.23009        32.23236        -2.09672
C         32.29062        31.99361        -3.27472
C         32.83870        33.30538        -1.07900
C         31.60811        34.12663        -1.24518
C         32.87222        36.05167        -0.26281
C         31.49150        35.24381        -0.24035
C         32.83535        37.46704         0.30434
C         31.67083        38.43826        -0.05203
C         32.63396        39.80844         1.78333
C         31.50642        39.43631         1.08432
C         32.62072        41.96027         2.33183
C         31.32968        42.51219         1.97508
C         32.57877        44.37779         1.33912
C         31.45516        43.85486         1.54942
C         36.41908        28.66185        -3.40305
C         36.46653        30.15981        -3.13109
C         35.17355        30.92485        -3.27526
C         35.51368        32.03416        -0.94020
C         34.71148        31.88014        -2.19441
C         34.97409        32.85326         0.00720
C         33.93803        33.84042        -0.25223
C         35.09704        35.68008         1.02879
C         34.01076        35.13518         0.20674
C         34.85748        36.94667         1.52508
C         33.89737        37.91700         1.03899
C         35.13806        40.11381         2.17342
C         34.01233        39.44957         1.29293
C         35.16512        41.70646         2.06505
C         33.87594        42.51418         2.02113
C         35.05946        44.49771         1.02534
C         33.89610        43.85135         1.44748
C         35.22469        45.71397         0.35227
C         38.66826        28.28197        -2.51444
C         37.40314        27.95297        -3.18043
C         38.47643        29.51534        -1.66988
C         37.13945        30.18788        -1.72496
C         37.88700        31.70866         0.20661
C         36.75500        31.21623        -0.67066
C         37.81678        32.97751         0.92933
C         36.64067        33.65128         1.20283
C         37.62694        35.87424         1.29430
C         36.46765        35.10023         1.26731
C         37.67711        37.38735         1.12800
C         36.60033        38.15278         1.85283
C         37.70360        40.22896         1.43908
C         36.48447        39.50299         1.76682
C         37.58205        41.65891         0.97978
C         36.44383        42.43577         1.69192
C         37.57636        44.42569         0.46355
C         36.44580        43.97250         1.43303
C         37.48977        45.73442        -0.32100
C         36.19419        46.40993        -0.05827
C         40.58895        25.07923        -1.83512
C         39.82476        25.88938        -2.37641
C         40.83917        27.73891        -1.14515
C         39.79321        27.34150        -2.20271
C         40.66033        29.11757        -0.50388
C         39.39510        29.89458        -0.71216
C         40.23964        31.58177         0.96703
C         39.11785        31.04698         0.13985
C         40.32600        33.06322         1.13171
C         39.01979        33.70818         1.48974
C         40.25432        35.92360         1.27202
C         38.95524        35.19380         1.16322
C         40.23557        37.35391         1.71248
C         38.93959        38.07902         1.63687
C         40.19955        40.28824         1.44223
C         38.90633        39.56662         1.51187
C         40.10768        41.67303         0.91830
C         38.93051        42.34960         0.91054
C         40.12259        44.51092         0.10020
C         38.93685        43.85876         0.85673
C         40.05908        45.87618        -0.52482
C         38.67382        46.41944        -1.00825
C         39.91778        48.47074        -1.39772
C         38.91118        47.91059        -0.92422
C         42.81709        24.61587        -0.51499
C         41.67243        25.36001        -0.93362
C         42.70328        27.14399         0.50596
C         41.67056        26.68588        -0.46094
C         42.70714        28.60042         0.91931
C         41.55715        29.44762         0.60452
C         42.77238        31.52591         1.60482
C         41.47998        30.78437         1.19882
C         42.78641        32.98269         0.99819
C         41.49734        33.71943         1.27545
C         42.79554        35.92471         1.36048
C         41.51438        35.16936         1.74957
C         42.75970        37.32092         1.29117
C         41.57935        38.06987         1.87468
C         42.73256        40.18632         0.86241
C         41.52946        39.56628         1.50799
C         42.64778        41.58145         0.38164
C         41.30170        42.22188         0.22014
C         42.37463        44.16790        -1.17055
C         41.24414        43.60549        -0.33550
C         42.37146        45.58935        -1.66938
C         41.31705        46.51563        -1.11790
C         42.42817        48.29394        -2.37428
C         41.30910        48.02626        -1.45133
C         43.89352        25.05426        -0.05954
C         45.29752        27.05195         0.83342
C         44.01257        26.29859         0.69715
C         45.32252        28.55480         1.06588
C         44.02196        29.28733         1.30318
C         45.35033        31.51946         1.26494
C         44.04860        30.78693         1.17966
C         45.31634        33.00093         1.55784
C         44.01547        33.73899         1.48399
C         45.27042        35.86243         1.05069
C         44.02447        35.21007         1.27565
C         45.29844        37.34455         1.03395
C         44.01550        38.10381         1.21971
C         45.12660        40.13782         0.17942
C         43.94060        39.53198         0.78206
C         45.01582        41.28124        -0.58992
C         43.80737        42.12616        -0.44386
C         44.76696        43.87692        -2.11110
C         43.58764        43.28752        -1.38232
C         44.74818        45.36256        -2.43458
C         43.64520        46.15034        -2.25424
C         43.42318        47.55235        -2.48442
C         47.63897        27.14389         1.26966
C         46.60362        26.46215         1.20364
C         47.91979        28.54453         1.33177
C         46.59883        29.26038         1.53061
C         47.92512        31.51111         1.47369
C         46.61080        30.76644         1.62268
C         47.90234        33.02312         1.31411
C         46.59839        33.76799         1.37980
C         47.69822        35.87157         0.48845
C         46.48465        35.17964         0.95294
C         47.68144        37.35771         0.42870
C         46.51598        38.04360         0.56924
C         47.65580        40.13066        -0.14496
C         46.48387        39.56450         0.60455
C         47.51681        41.19576        -1.12953
C         46.14663        41.75725        -1.43921
C         47.35625        43.69414        -2.71934
C         46.07400        43.08863        -2.16625
C         47.17951        45.16040        -2.84688
C         46.06361        45.70352        -2.88476
C         50.41526        28.74509         0.87018
C         49.07766        29.21849         1.07856
C         50.21097        31.39457         0.19283
C         49.13797        30.72987         1.04624
C         50.00293        32.89334        -0.17645
C         49.22268        33.68787         0.89226
C         50.28317        35.90862         0.37415
C         49.02162        35.14212         0.40161
C         50.29069        37.35651         0.61604
C         48.97301        38.09921         0.47860
C         50.12364        40.46419         0.35171
C         48.99860        39.47924        -0.16796
C         50.02950        41.75391        -0.55633
C         48.73693        42.06617        -1.31916
C         49.89172        43.91869        -2.39158
C         48.70944        42.98815        -2.59148
C         51.50041        29.31908         0.65477
C         52.61612        31.59679        -0.21898
C         51.54024        30.62541        -0.02386
C         52.47290        32.77862        -0.55444
C         51.35324        33.71412        -0.51451
C         52.60470        36.06808        -0.16011
C         51.42761        35.18985        -0.25113
C         52.64213        37.28706         0.01489
C         51.58293        38.18542         0.48592
C         52.53076        40.48457        -0.32841
C         51.51278        39.68089         0.33191
C         52.41480        41.54930        -0.97466
C         51.29763        42.38338        -1.14282
C         50.98825        43.46892        -1.95842
O         40.40689        45.72280         0.87875
O         41.81540        47.54417        -0.19955
O         43.16453        28.77732         2.32291
O         33.07476        36.24550        -1.72958
O         48.99045        31.20570         2.42043
O         41.03300        40.31860         2.66385
O         36.14564        42.16134         3.08481
O         44.59067        33.35034         2.76634
O         37.25672        44.41822        -0.93876
O         51.15377        34.63271        -1.59020
O         43.61336        42.51957         0.95973
O         32.63471        31.86971        -0.82504
O         35.48530        32.88351         1.29731
O         49.08424        42.74582        -0.08217
O         47.47198        33.63434         2.57312
O         50.52159        30.66874        -1.04687
O         48.19172        35.28166        -0.79851
O         46.47447        29.93966         2.81033
O         40.43474        30.88707         2.25456
O         39.40466        37.53970         2.90719
O         35.66882        37.40030         2.56004
O         41.58166        28.86982        -1.66938
O         49.55915        37.89062         1.79333
O         46.75394        40.75491        -2.32796
O         46.47441        42.96424        -3.58547
O         40.82367        42.44697        -1.15542
O         51.83224        39.06349         1.59389
O         37.17628        41.58211        -0.37242
O         44.90776        37.87823         2.37335
O         39.71088        35.63625        -0.05072
O         45.44674        27.99729        -0.27564
O         43.77514        43.04114        -2.79660
O         39.84341        28.19979        -3.35170
O         32.55047        40.66184         2.88954
O         36.35808        29.80268        -0.55851
O         41.78852        44.54012        -2.47119
O         42.98713        26.33802         1.69568
O         44.75485        31.19305        -0.03018
O         41.39570        35.18095         3.15809
O         35.38722        32.36109        -3.40455
O         42.92094        32.91453        -0.43731
H         42.05288        32.71318        -0.84376
O         34.20817        40.08815         0.01561
H         33.56481        39.74335        -0.65259
O         41.92484        37.96516         3.27276
H         41.75536        37.01584         3.53977
O         38.60642        46.09715        -2.39044
H         37.98218        45.34986        -2.52480
O         37.52767        37.65289        -0.28862
H         38.20291        37.11595        -0.76165
O         49.20507        32.89258        -1.34889
H         49.65261        32.34536        -2.03107
O         38.93420        33.66013         2.93945
H         39.74339        34.12699         3.29154
O         36.67534        44.63700         2.67921
H         36.48777        43.99196         3.40307
O         37.42098        30.72955        -4.00596
H         37.00150        30.92600        -4.86897
O         34.87380        39.80166         3.53450
H         35.53410        40.26887         4.08995
O         34.42745        36.74819        -1.89853
H         34.28349        37.61155        -2.35798
O         42.81136        31.58749         3.02050
H         41.88536        31.59986         3.35741
O         48.92437        42.18933        -3.72737
H         48.11879        42.21415        -4.29390
O         49.38932        39.27024        -1.55600
H         48.59705        39.05542        -2.09515
O         49.88173        40.86532         1.67063
H         50.06295        40.10994         2.27468
O         39.12804        44.16233         2.26015
H         39.45966        45.08682         2.34024
O         50.07429        33.73923         2.04378
H         49.50913        33.80725         2.84674
O         31.33502        34.70807         1.06141
H         30.61068        34.04891         1.06178
O         46.62341        39.95656         2.00004
H         46.00692        39.39230         2.53154
O         31.99782        39.12922        -1.26626
H         31.22603        39.66852        -1.53985
