         420
 CSIRO Nanostructure Databank - Neutral Graphene Oxide Data Set
C         27.94474        27.41590         0.74207
C         27.88198        28.79452         0.39370
C         26.69440        29.53170         0.34475
C         27.83354        31.70927         0.17373
C         26.66981        30.93892         0.23010
C         27.87873        33.15839         0.21506
C         26.68985        33.91801         0.33440
C         27.91047        36.02998         0.15275
C         26.70426        35.30037         0.30447
C         27.92810        37.47355         0.10933
C         26.73371        38.23651         0.23160
C         27.95109        40.32743        -0.08299
C         26.74469        39.61022         0.14659
C         27.96179        41.75166        -0.28159
C         26.75880        42.55155        -0.21142
C         27.95183        44.60178        -0.82174
C         26.75875        43.90201        -0.42801
C         28.01304        45.97331        -0.97819
C         30.41100        27.43191         0.81026
C         29.15056        26.76540         0.92549
C         30.42695        28.79165         0.41982
C         29.15114        29.47539         0.10660
C         30.35920        31.73228         0.32564
C         29.10615        30.99212         0.01338
C         30.36954        33.18130         0.06782
C         29.11785        33.87162         0.08383
C         30.37641        36.00445        -0.08405
C         29.13248        35.30325         0.04135
C         30.38928        37.42765        -0.14651
C         29.15845        38.16322        -0.06542
C         30.40979        40.28135        -0.36568
C         29.17140        39.59207        -0.17332
C         30.41595        41.68589        -0.57358
C         29.17819        42.38792        -0.59050
C         30.48697        44.52352        -1.19519
C         29.15874        43.78879        -1.03769
C         30.45193        45.99679        -1.24047
C         29.24916        46.65336        -1.21997
C         32.85186        25.16630         2.50038
C         31.67442        25.60315         1.91798
C         32.90759        27.47614         0.91858
C         31.66618        26.81195         1.18371
C         32.89127        28.81957         0.42652
C         31.64236        29.48735         0.30537
C         32.87769        31.66658        -0.01393
C         31.64523        30.96136         0.33858
C         32.84655        33.10423        -0.09267
C         31.59759        33.84558        -0.02534
C         32.83759        35.97534        -0.27462
C         31.61506        35.28177        -0.13659
C         32.85739        37.40376        -0.36782
C         31.62680        38.12766        -0.28275
C         32.88261        40.24395        -0.46311
C         31.64495        39.55039        -0.37817
C         32.89972        41.67549        -0.51017
C         31.67192        42.39857        -0.64941
C         32.89994        44.53900        -0.50390
C         31.71705        43.80458        -0.79635
C         32.84051        45.97929        -0.63458
C         31.80155        46.62664        -1.53723
C         32.87831        48.85155        -0.99491
C         31.83642        48.13528        -1.48229
C         35.99666        23.33983         2.42475
C         35.99648        24.72979         2.20863
C         34.05103        25.85029         2.24443
C         35.44106        27.49953         0.89870
C         34.16240        26.91585         1.32941
C         35.38750        28.82610         0.31080
C         34.11088        29.51516         0.18490
C         35.24143        31.57017        -0.69279
C         34.03946        30.89618        -0.19607
C         35.26589        33.07115        -0.56767
C         34.05130        33.81410        -0.19599
C         35.30164        35.92452        -0.43653
C         34.09137        35.24917        -0.27108
C         35.33017        37.34805        -0.90781
C         34.08198        38.10326        -0.53058
C         35.37039        40.21728        -0.56873
C         34.11341        39.51134        -0.51475
C         35.37657        41.64158        -0.50817
C         34.13123        42.37947        -0.44744
C         35.40126        44.45078        -0.16308
C         34.12996        43.80299        -0.28956
C         35.52975        45.79774         0.23991
C         33.75241        46.82490        -0.02172
C         35.26292        48.79877        -0.09428
C         33.99587        48.19320        -0.34344
C         35.32470        50.22976        -0.01497
C         37.98867        23.16623         1.06036
C         36.94165        22.55358         1.79495
C         37.95056        24.57930         0.83983
C         36.84206        25.37512         1.29494
C         37.85856        27.42076         0.36234
C         36.68428        26.78785         0.89666
C         37.82393        28.79441        -0.07062
C         36.57103        29.47153        -0.10770
C         37.77788        31.60879        -0.80151
C         36.51273        30.76716        -0.90228
C         37.80906        32.97291        -0.63837
C         36.57302        33.72108        -0.32349
C         37.85277        35.92934        -0.50377
C         36.57884        35.22865        -0.26578
C         37.84062        37.35751        -0.53758
C         36.61815        38.07313        -0.58543
C         37.85674        40.20928        -0.58867
C         36.61136        39.49542        -0.58308
C         37.86113        41.63406        -0.64767
C         36.61074        42.33131        -0.57397
C         37.80625        44.48586        -0.63196
C         36.62833        43.76386        -0.47546
C         37.75949        45.94767        -0.67871
C         36.58010        46.64213        -0.15745
C         37.76819        48.79702        -0.11018
C         36.52377        48.07164        -0.08066
C         37.76492        50.22467         0.13389
C         36.49909        50.89844         0.18288
C         40.36192        20.27357         0.66897
C         39.19020        20.97165         0.81544
C         40.32535        23.07413         0.26838
C         39.15014        22.39517         0.67632
C         40.29227        24.49228         0.13221
C         39.12003        25.23497         0.34127
C         40.23558        27.35644        -0.23800
C         39.07884        26.68584         0.18690
C         40.23771        28.75245        -0.51079
C         39.02235        29.45152        -0.49530
C         40.29412        31.61707        -0.81874
C         39.03421        30.83897        -1.11503
C         40.25704        33.02846        -0.80138
C         39.04418        33.74216        -0.67094
C         40.29944        35.91997        -0.62800
C         39.04678        35.18567        -0.59524
C         40.29520        37.35011        -0.62193
C         39.09924        38.06347        -0.55712
C         40.31069        40.23729        -0.50465
C         39.10283        39.51729        -0.56523
C         40.31929        41.65685        -0.61134
C         39.08486        42.34287        -0.72882
C         40.32816        44.54395        -0.58581
C         39.08448        43.81250        -1.06086
C         40.32664        45.93899        -0.45969
C         39.08188        46.71420        -0.62869
C         40.26388        48.78684        -0.07263
C         39.02175        48.11834        -0.20458
C         40.27380        50.29298        -0.09263
C         38.97080        50.92493         0.32679
C         40.17437        52.86405         1.22709
C         39.00490        52.25504         0.84443
C         42.82265        20.24892         0.34264
C         41.58832        20.94607         0.37217
C         42.79218        22.99982        -0.21096
C         41.56945        22.34428         0.11432
C         42.70499        24.40910        -0.74657
C         41.61279        25.20444         0.00226
C         42.73096        27.32670        -0.83005
C         41.44850        26.59133        -0.56221
C         42.72269        28.78304        -0.66959
C         41.50152        29.45919        -0.67271
C         42.74068        31.56558        -0.44339
C         41.50872        30.89972        -0.67533
C         42.79283        33.02108        -0.59818
C         41.51780        33.78276        -0.84071
C         42.78396        35.91481        -0.47376
C         41.52495        35.23307        -0.61863
C         42.83560        37.33272        -0.55471
C         41.58035        38.10328        -0.89764
C         42.82883        40.21891        -0.57088
C         41.58725        39.48211        -0.20191
C         42.87102        41.70022        -0.76923
C         41.55185        42.40225        -0.57494
C         42.77977        44.52646        -0.19082
C         41.55101        43.80804        -0.46690
C         42.76829        45.94385        -0.06409
C         41.52751        46.66784        -0.19999
C         42.77200        48.87336        -0.27238
C         41.48484        48.08877        -0.11346
C         42.72323        50.24221         0.38969
C         41.49354        50.88872         0.56095
C         42.64186        52.80379         1.53909
C         41.44414        52.19028         1.11660
C         44.00702        20.92698         0.12274
C         45.33237        23.04899        -0.22229
C         44.00693        22.31040        -0.17974
C         45.24197        24.50230        -0.62822
C         44.01690        25.17674        -0.67181
C         45.20686        27.32107        -0.64933
C         44.00209        26.58778        -0.71251
C         45.19760        28.76222        -0.50340
C         43.96953        29.45912        -0.46952
C         45.17887        31.54866         0.08161
C         43.95328        30.87333        -0.25188
C         45.13904        32.98616         0.44538
C         43.90531        33.75476         0.04984
C         45.21460        35.85818        -0.01259
C         43.98096        35.20366        -0.17988
C         45.24560        37.28364        -0.08499
C         44.04858        38.00009        -0.37735
C         45.03235        40.12304         0.52188
C         44.14443        39.49862        -0.57752
C         45.14852        41.62934         0.34600
C         44.02388        42.36017        -0.01157
C         45.13261        44.50532         0.50548
C         43.98860        43.80531         0.06553
C         45.15625        45.92553         0.53688
C         43.97092        46.65341         0.23661
C         45.14640        48.79972         0.47217
C         44.00343        48.10279         0.16913
C         45.20375        50.28903         0.18847
C         43.92035        50.92210         0.69538
C         43.86607        52.18641         1.30358
C         47.60592        23.06227        -1.20026
C         46.46604        22.37607        -0.95622
C         47.71092        24.50021        -0.97801
C         46.45971        25.22246        -0.79677
C         47.66734        27.42188        -0.91217
C         46.43268        26.63251        -0.76862
C         47.67746        28.81540        -0.42508
C         46.42976        29.46750        -0.29891
C         47.62145        31.48954         0.56114
C         46.38289        30.85800         0.05528
C         47.60646        32.98238         0.89818
C         46.40091        33.75580         0.52711
C         47.76495        35.81847         0.13723
C         46.42864        35.10900         0.28125
C         47.68149        37.31662         0.36956
C         46.45952        37.97962         0.25407
C         47.65119        40.16324         0.82939
C         46.36490        39.39679         0.66377
C         47.61310        41.64104         0.77911
C         46.38334        42.29643         0.67985
C         47.65049        44.50836         1.05326
C         46.32345        43.74858         0.90870
C         47.62022        45.97015         0.88149
C         46.39687        46.62429         0.78258
C         47.65445        48.85137         1.07533
C         46.34788        48.08767         0.93646
C         47.60939        50.32715         0.90025
C         46.47281        50.97537         0.62151
C         50.20430        24.53013        -1.06570
C         48.92838        25.18422        -1.01350
C         50.21458        27.38254        -0.71020
C         48.96308        26.66547        -1.02870
C         50.19108        28.76602        -0.34477
C         48.92109        29.48268        -0.14713
C         50.15092        31.48051         0.75218
C         48.90443        30.79770         0.34403
C         50.19565        32.97790         0.97748
C         48.90170        33.72730         1.09550
C         50.19069        35.89622         0.74813
C         48.84922        35.25092         1.06425
C         50.16771        37.30005         0.60535
C         48.91180        38.02114         0.56758
C         50.11323        40.17918         0.48124
C         48.92162        39.44720         0.60528
C         50.09507        41.63458         0.52317
C         48.86802        42.35240         0.75185
C         50.09097        44.49799         0.58716
C         48.89149        43.76830         0.79719
C         50.08931        45.94709         0.58958
C         48.87537        46.67915         0.79436
C         50.09528        48.77257         0.51507
C         48.89462        48.09659         0.80783
C         51.37407        25.23904        -1.03665
C         52.66685        27.38015        -0.77752
C         51.41982        26.67017        -0.83806
C         52.65433        28.76667        -0.43792
C         51.41864        29.42842        -0.15532
C         52.67151        31.61300         0.30531
C         51.45206        30.78979         0.42706
C         52.66267        33.01074         0.45943
C         51.44409        33.73554         0.69086
C         52.66334        35.89582         0.59387
C         51.41463        35.15891         0.68779
C         52.64245        37.34739         0.55160
C         51.39369        38.03950         0.51079
C         52.57094        40.17449         0.19725
C         51.36376        39.46316         0.37818
C         52.54429        41.65195        -0.11965
C         51.28457        42.36279         0.32978
C         52.54414        44.51361         0.20213
C         51.30099        43.78049         0.37802
C         52.53795        45.93442         0.13862
C         51.29462        46.65600         0.33432
C         51.26363        48.07025         0.28339
C         55.08173        27.47361        -1.07896
C         53.90967        26.75209        -1.06872
C         55.09166        28.85082        -0.72726
C         53.89034        29.47555        -0.34907
C         55.22767        31.65720        -0.02818
C         53.92241        30.86367         0.14661
C         55.11950        33.12698        -0.00510
C         53.90615        33.76298         0.31698
C         55.16310        35.89840         0.59016
C         53.87440        35.19057         0.48729
C         55.14627        37.44620         0.58567
C         53.84136        38.09933         0.43969
C         55.04875        40.24476        -0.02207
C         53.80674        39.50241         0.20040
C         55.05619        41.63392        -0.00837
C         53.79019        42.34289         0.42507
C         54.97767        44.51414        -0.08525
C         53.77172        43.82046         0.11940
C         54.95335        45.92427        -0.20476
C         53.76305        46.61422        -0.07678
C         56.29897        29.62774        -0.91418
C         56.34126        30.96488        -0.69688
C         56.31773        33.89274        -0.19312
C         56.37004        35.20723         0.14290
C         56.33903        38.17746         0.12956
C         56.27258        39.48924        -0.18604
C         56.24531        42.41621        -0.19976
C         56.21690        43.78206        -0.21162
O         44.11635        33.34117         1.44011
O         35.05979        32.42869        -1.88080
O         35.15184        25.49121         3.02885
O         55.33160        36.68671         1.81881
O         29.79977        43.93380        -2.35728
O         41.88223        26.82056        -1.94218
O         29.18968        30.17240        -1.19599
O         47.39605        31.99549         1.94046
O         38.36874        46.50372        -1.90691
O         46.87856        44.09262         2.22408
O         46.88871        48.47239         2.26486
O         34.51308        46.31554         1.05006
O         54.86527        31.05577         1.25826
O         36.61207        34.38625         0.97059
O         42.45097        33.44005        -1.95471
O         30.98630        31.41328         1.61490
O         50.89391        30.77677         1.80418
O         48.31185        27.24336        -2.23386
O         49.61173        33.30781         2.29832
O         46.91582        39.62096         2.00612
O         42.34728        24.24351        -2.13629
H         42.22188        25.14837        -2.51691
O         48.47731        35.66609         2.39648
H         48.96570        35.08698         3.02484
O         45.20871        50.45977        -1.26233
H         44.40098        50.00959        -1.62884
O         35.30635        37.26880        -2.39515
H         35.24354        38.18816        -2.73290
O         41.60935        39.25337         1.24428
H         42.51960        39.44956         1.58373
O         43.23256        41.94844        -2.18272
H         44.03403        41.39855        -2.35941
O         41.61808        38.37549        -2.33173
H         41.41101        37.54135        -2.80374
O         40.44202        50.63556        -1.53891
H         40.37964        51.61294        -1.60976
O         44.31205        39.90811         1.76363
H         44.98382        39.92861         2.48596
O         44.83348        39.73095        -1.84977
H         44.31444        39.26490        -2.54120
O         36.43317        30.29918        -2.29651
H         36.01338        31.03352        -2.80492
O         42.09685        25.41200         1.36365
H         42.19847        24.53223         1.78605
O         53.72398        42.22111         1.87686
H         54.51665        42.65716         2.25325
O         39.11361        43.90337        -2.53259
H         38.95685        44.85594        -2.74880
O         32.09866        46.27638        -2.92533
H         31.77143        45.36503        -3.08576
O         52.59647        41.77511        -1.57304
H         51.80065        41.33819        -1.94157
O         42.87762        49.12301        -1.71864
H         42.06294        49.63178        -1.96664
O         45.74146        23.07956         1.19593
H         46.61805        23.51838         1.23798
O         48.21452        35.57871        -1.22905
H         47.57980        36.01154        -1.83779
O         39.06328        30.62016        -2.56638
H         38.17106        30.26016        -2.80541
H         27.00472        26.86397         0.88956
H         25.73975        29.00395         0.48754
H         25.68836        31.43245         0.26742
H         25.72567        33.40405         0.44740
H         25.74772        35.83112         0.39677
H         25.77250        37.73060         0.39093
H         25.79342        40.15073         0.23805
H         25.81233        42.06638         0.06254
H         25.82671        44.47558        -0.31735
H         27.09902        46.57258        -0.85715
H         29.12942        25.70066         1.19545
H         29.22175        47.74818        -1.31893
H         32.85841        24.31230         3.18978
H         30.73824        25.07003         2.12748
H         32.88679        49.94483        -1.11610
H         31.02912        48.66513        -2.00906
H         35.26216        22.90242         3.11310
H         34.38493        50.79898        -0.02528
H         36.93883        21.47012         1.96834
H         36.46974        51.98836         0.31213
H         40.37468        19.18243         0.80551
H         38.27190        20.41966         1.05704
H         40.15097        53.87273         1.66330
H         38.06025        52.78736         1.02300
H         42.83238        19.16813         0.54516
H         42.60553        53.80136         1.99960
H         44.96178        20.38467         0.17219
H         44.79409        52.70688         1.57719
H         48.46630        22.54065        -1.64521
H         46.41209        21.30030        -1.17929
H         48.52123        50.90437         1.11629
H         46.49383        52.07150         0.52744
H         50.24456        23.43409        -1.13707
H         50.11724        49.86974         0.48426
H         52.31925        24.68355        -1.09845
H         52.17806        48.63803         0.07123
H         56.02727        26.98796        -1.35955
H         53.93845        25.68782        -1.33618
H         55.89286        46.46831        -0.37775
H         53.78512        47.70952        -0.14260
H         57.16689        29.11841        -1.35870
H         57.23177        31.53191        -1.00090
H         57.24132        33.38372        -0.49773
H         57.33217        35.73439         0.13547
H         57.30670        37.66033         0.09422
H         57.18861        40.00672        -0.50063
H         57.20664        41.91059        -0.36587
H         57.14462        44.35073        -0.36996
