         420
 CSIRO Nanostructure Databank - Neutral Graphene Oxide Data Set
C         27.96536        28.32678         1.61011
C         27.84368        29.24872         0.47347
C         26.80822        30.27504         0.37032
C         28.06951        31.59556        -1.31669
C         26.90206        31.31097        -0.51906
C         28.03574        32.79922        -2.31379
C         26.76876        33.61044        -2.19519
C         27.93581        35.77609        -2.01569
C         26.74404        34.96081        -2.06061
C         27.88544        37.24511        -2.18540
C         26.65974        38.06611        -1.97324
C         27.96417        40.12667        -1.47768
C         26.69422        39.39648        -1.76226
C         27.96893        41.52115        -0.89739
C         26.74375        42.36301        -0.72574
C         27.97004        43.62315         1.04793
C         26.76578        43.38487         0.14656
C         28.05486        45.03090         1.59036
C         30.36914        27.96736         1.17338
C         29.11452        27.62539         1.81602
C         30.41816        29.07817         0.30867
C         29.16874        29.60301        -0.25455
C         30.52677        31.13406        -1.56379
C         29.20351        30.81234        -1.09405
C         30.51425        33.16365        -2.30277
C         29.25736        33.70910        -2.17237
C         30.44264        35.86817        -1.93004
C         29.18607        35.13843        -2.02072
C         30.47189        37.27660        -1.94514
C         29.20120        37.98067        -2.15231
C         30.35955        40.06578        -2.32775
C         29.20904        39.44913        -1.95462
C         30.44360        42.06799        -1.41708
C         29.22077        42.33203        -0.69143
C         30.51538        43.87434         0.71675
C         29.23800        43.25238         0.31536
C         30.49778        45.24198         1.26368
C         29.20625        45.73818         1.70182
C         32.80834        25.33658         2.27516
C         31.62553        26.01542         2.09843
C         32.85259        27.93637         1.19711
C         31.60195        27.30754         1.50493
C         32.85254        29.21918         0.56562
C         31.66099        29.74420         0.05883
C         32.91001        31.66160        -1.05104
C         31.68384        30.88327        -0.84750
C         32.91590        33.02127        -1.52637
C         31.72664        33.78651        -1.87592
C         32.87587        35.90916        -1.23169
C         31.67479        35.17550        -1.76047
C         32.91060        37.37928        -1.59797
C         31.71340        38.00775        -1.91416
C         32.96505        40.28787        -1.94959
C         31.70857        39.45037        -2.27074
C         32.92902        41.84183        -1.73452
C         31.69558        42.32545        -0.96072
C         32.92654        44.27210        -0.02076
C         31.79776        43.33876         0.11291
C         32.84087        45.54325         0.52456
C         31.67587        45.98843         1.27236
C         32.90039        48.01730         1.96603
C         31.82527        47.20754         2.05822
C         35.30452        23.79362         2.38593
C         35.30423        25.19270         2.07109
C         34.06921        25.93194         1.95244
C         35.38265        28.01743         1.41399
C         34.07597        27.26268         1.47852
C         35.37020        29.20068         0.48585
C         34.11673        30.02947         0.48038
C         35.36588        31.73963        -0.87028
C         34.11310        31.12766        -0.55272
C         35.36373        33.06990        -1.39648
C         34.14608        33.73612        -1.52301
C         35.38483        35.88782        -1.06730
C         34.16133        35.23512        -1.74289
C         35.37589        37.39140        -1.24932
C         34.15696        38.10122        -1.47008
C         35.38155        40.22328        -1.22779
C         34.17859        39.53235        -1.50561
C         35.38669        41.66487        -1.04043
C         34.17745        42.37889        -1.05732
C         35.35346        44.40581        -0.32307
C         34.14822        43.71445        -0.55531
C         35.30065        45.84582        -0.05286
C         33.95841        46.47986         0.28868
C         35.25184        48.51678         1.11916
C         33.88449        47.90500         0.82681
C         35.27404        49.82671         1.59645
C         37.79893        23.72059         2.49376
C         36.44864        23.06493         2.50406
C         37.77260        25.05247         1.78016
C         36.56241        25.80405         1.71490
C         37.80150        27.72357         0.79175
C         36.59304        27.14135         1.24334
C         37.81901        29.04432         0.23774
C         36.56759        29.75539         0.03526
C         37.84844        31.60213        -1.08076
C         36.57496        31.03465        -0.61724
C         37.88598        32.97450        -1.68293
C         36.60562        33.77908        -1.92132
C         37.84881        35.92250        -1.35967
C         36.67995        35.22894        -1.47504
C         37.85045        37.35025        -1.03534
C         36.59709        38.07623        -1.10850
C         37.82750        40.19309        -0.76840
C         36.60484        39.50583        -1.04146
C         37.83134        41.61158        -0.60148
C         36.60250        42.33122        -0.68726
C         37.81126        44.44732        -0.18691
C         36.59872        43.73605        -0.41811
C         37.77203        45.85607         0.15793
C         36.54468        46.53765         0.31255
C         37.72253        48.57973         1.01788
C         36.49294        47.87592         0.81097
C         37.70902        49.93242         1.47497
C         36.47194        50.52577         1.77201
C         40.01610        20.65108         1.91293
C         38.90207        21.43420         2.17644
C         40.16591        23.45544         1.68097
C         38.95381        22.83708         2.06267
C         40.21563        24.86952         1.40945
C         38.99412        25.63100         1.37202
C         40.26063        27.59108         0.56672
C         39.02011        26.97525         0.88614
C         40.28709        28.94802         0.12931
C         39.06007        29.65797        -0.08991
C         40.33677        31.65209        -0.78452
C         39.10676        30.97887        -0.62201
C         40.39249        33.03161        -1.18724
C         39.18546        33.72388        -1.66076
C         40.36998        35.92580        -1.10132
C         39.15633        35.24964        -1.56766
C         40.31327        37.30231        -0.73581
C         39.04427        38.02407        -0.77259
C         40.23091        40.14770        -0.24353
C         39.04735        39.46320        -0.58443
C         40.25539        41.57260        -0.12110
C         39.04133        42.30512        -0.30454
C         40.27351        44.41398         0.07578
C         39.04921        43.73144        -0.15285
C         40.28443        45.91458        -0.05874
C         38.98766        46.56359         0.35929
C         40.20459        48.63901         0.87978
C         38.96664        47.91920         0.73820
C         40.17724        50.04893         1.19439
C         38.95585        50.68255         1.55645
C         40.18085        52.75569         1.94198
C         38.99167        52.04310         1.93930
C         42.43498        20.46841         1.40215
C         41.26362        21.24980         1.60395
C         42.61892        23.29376         1.30053
C         41.34950        22.66982         1.50925
C         42.67589        24.73150         1.12913
C         41.44858        25.48102         1.07895
C         42.72580        27.50164         0.44095
C         41.48295        26.86088         0.70297
C         42.75860        28.88288         0.08274
C         41.53195        29.59574        -0.09905
C         42.80314        31.64844        -0.57816
C         41.55913        30.96659        -0.48309
C         42.81673        33.05856        -0.80019
C         41.59069        33.75546        -1.06439
C         42.79826        35.90291        -0.78597
C         41.58422        35.20453        -1.03901
C         42.75298        37.30610        -0.48528
C         41.49319        37.96548        -0.38198
C         42.72891        40.09215         0.15424
C         41.42580        39.34390         0.20945
C         42.67448        41.51610         0.53423
C         41.44844        42.27952         0.23010
C         42.73231        44.42863         0.49201
C         41.47592        43.69904         0.28465
C         42.72407        45.85256         0.60111
C         41.49875        46.57743         0.53681
C         42.68467        48.71650         1.21511
C         41.43958        47.94655         0.82753
C         42.60292        50.11544         0.56964
C         41.37613        50.80137         1.13930
C         42.62802        52.90946         1.47709
C         41.38660        52.14932         1.51786
C         43.65713        21.07790         1.20034
C         45.11470        23.13070         1.19982
C         43.77998        22.48919         1.19369
C         45.16599        24.66420         1.09706
C         43.90059        25.39147         0.91837
C         45.19807        27.43411         0.35720
C         43.94806        26.77238         0.56594
C         45.23230        28.82374         0.05898
C         44.00509        29.54780        -0.08578
C         45.27113        31.64162        -0.45595
C         44.02641        30.94584        -0.37295
C         45.28213        33.05796        -0.63680
C         44.04385        33.76372        -0.75149
C         45.27047        35.89330        -0.72042
C         44.04104        35.19376        -0.76339
C         45.22224        37.36339        -0.66046
C         43.95665        38.02633        -0.29435
C         45.20633        40.10914         0.39928
C         43.93142        39.41785         0.05050
C         45.25084        41.57492         0.48371
C         43.98229        42.28056         0.68672
C         45.21162        44.42642         0.65543
C         43.96754        43.74630         0.57803
C         45.20330        45.85974         0.77201
C         43.96396        46.56118         0.78959
C         45.17729        48.67909         1.00324
C         43.97304        47.97804         0.93068
C         45.19009        50.16651         0.94367
C         43.90174        50.91852         0.72950
C         43.79893        52.34493         1.11702
C         47.50583        23.09128         0.58287
C         46.33478        22.42905         0.77590
C         47.60861        24.53644         0.58950
C         46.42452        25.30023         0.67684
C         47.67660        27.36931         0.26722
C         46.43299        26.69633         0.42198
C         47.70263        28.78706         0.02466
C         46.48589        29.49993        -0.10480
C         47.71889        31.62740        -0.48040
C         46.49814        30.92430        -0.34480
C         47.72980        33.02248        -0.63756
C         46.51817        33.76619        -0.68739
C         47.74673        35.94422        -0.66456
C         46.51197        35.21269        -0.73573
C         47.78139        37.32447        -0.43329
C         46.52581        38.08691        -0.48392
C         47.77029        40.18684         0.13290
C         46.51952        39.41376         0.18903
C         47.73492        41.57784         0.33717
C         46.46081        42.26808         0.46645
C         47.69395        44.37764         0.79214
C         46.45676        43.70523         0.62659
C         47.65997        45.80962         1.16653
C         46.41416        46.56777         0.99098
C         47.65798        48.71987         1.20583
C         46.42109        47.97803         1.08979
C         47.58636        50.14749         1.45296
C         46.42012        50.83121         1.41766
C         50.12199        24.50738         0.31466
C         48.86120        25.21636         0.41897
C         50.19058        27.34611         0.51793
C         48.88305        26.62038         0.33720
C         50.15962        28.76806         0.03804
C         48.96873        29.45331        -0.13235
C         50.21159        31.65349        -0.13675
C         49.01586        30.87250        -0.64770
C         50.26996        33.03009        -0.34788
C         49.02924        33.71782        -0.78811
C         50.26744        35.93699        -0.43804
C         49.02700        35.23033        -0.78638
C         50.24577        37.33938        -0.26853
C         48.99745        38.05094        -0.23867
C         50.22673        40.18880         0.04333
C         48.99109        39.46813        -0.03283
C         50.21732        41.60710         0.24534
C         48.96349        42.31224         0.41186
C         50.23756        44.40745         1.03089
C         48.93281        43.70365         0.67584
C         50.20969        45.90703         0.81480
C         48.96769        46.60657         1.17219
C         50.11944        48.76416         0.81323
C         48.89316        48.07102         1.06139
C         51.30866        25.15436         0.08024
C         52.60348        27.27657        -0.19857
C         51.40865        26.58291         0.04590
C         52.62690        28.73210        -0.13131
C         51.42375        29.43807        -0.05418
C         52.75732        31.62517         0.22935
C         51.43221        30.89531         0.16523
C         52.76510        33.15251         0.26237
C         51.47207        33.78536        -0.22593
C         52.72721        35.92981        -0.25963
C         51.48101        35.20472        -0.32531
C         52.70719        37.33207        -0.21170
C         51.47690        38.05349        -0.17120
C         52.67717        40.21874        -0.20011
C         51.45937        39.48283        -0.07983
C         52.65360        41.63993        -0.11864
C         51.44053        42.32612         0.20246
C         52.59317        44.48699         0.16890
C         51.45321        43.76184         0.39905
C         52.68679        45.99334         0.33211
C         51.33345        46.64233         0.53348
C         51.28093        48.08097         0.56550
C         54.99404        27.28401        -0.72853
C         53.83621        26.59727        -0.50464
C         55.04396        28.72087        -0.65951
C         53.87406        29.45087        -0.30923
C         55.10781        31.56218        -0.64232
C         53.94006        30.87120        -0.23702
C         55.11479        33.03336        -0.72684
C         53.97001        33.78277        -0.39338
C         55.16695        35.88064        -0.81341
C         53.97489        35.19855        -0.45792
C         55.25204        37.35024        -0.62090
C         53.97126        38.09261        -0.22070
C         55.06063        40.26401        -0.82335
C         53.91488        39.55151        -0.42382
C         55.00183        41.70424        -0.88132
C         53.85582        42.35605        -0.37519
C         54.89530        44.61051        -1.01852
C         53.84100        43.80841        -0.21800
C         54.47763        45.96709        -1.43352
C         53.43568        46.58872        -0.85651
C         56.23018        29.41839        -0.96212
C         56.25140        30.80619        -0.98323
C         56.25403        33.73526        -1.18278
C         56.28480        35.12505        -1.20312
C         56.29221        38.16877        -1.25593
C         56.22244        39.52681        -1.27287
C         55.97790        42.48346        -1.60726
C         55.84615        43.82712        -1.80355
O         28.01830        40.35497         0.01661
O         45.29408        23.97411         2.38653
O         43.22838        41.78817         1.87748
O         31.41701        42.95045         1.46500
O         30.30787        41.42364        -2.65104
O         54.96730        37.70377         0.77698
O         52.12995        31.13837         1.46234
O         28.23909        28.61001        -0.77849
O         34.45697        46.52136        -1.08345
O         28.55851        37.64142        -3.45156
O         45.89580        39.41186         1.51854
O         32.62666        39.88550        -3.32278
O         37.91172        31.82313        -2.58875
O         44.79459        50.68701        -0.41422
O         48.36028        46.09673         2.43099
O         55.03028        44.39192         0.42316
O         39.35125        34.55992        -2.84793
O         30.62477        31.84100        -2.76696
O         45.88973        38.06595        -1.80536
O         49.15911        34.44648        -2.05089
O         40.39216        46.16559        -1.51755
H         40.43694        47.13863        -1.64084
O         50.39553        44.21394         2.47058
H         49.69486        44.76179         2.90166
O         35.32246        35.63404         0.38802
H         36.01868        36.18304         0.80859
O         36.43689        33.84011        -3.37332
H         36.80165        32.99588        -3.73019
O         32.72591        35.81853         0.21004
H         33.62032        35.88750         0.62512
O         52.86971        33.55225         1.66519
H         52.43066        32.83966         2.18829
O         34.22747        35.51750        -3.15222
H         34.98033        34.99704        -3.52936
O         33.31560        48.71637        -0.24445
H         33.70629        48.37498        -1.08183
O         27.81721        42.72403         2.18226
H         27.86196        41.80627         1.83297
O         41.20325        39.12328         1.66343
H         41.53935        39.91522         2.13839
O         53.45490        46.29785         1.52326
H         54.27033        45.74017         1.47922
O         32.91557        42.45062        -3.04172
H         32.57675        41.77255        -3.67366
O         42.36280        49.93961        -0.84379
H         43.23227        50.06573        -1.29340
O         28.02642        32.21534        -3.63933
H         28.90476        31.79099        -3.77352
O         34.14959        30.77468         1.79396
H         34.84535        31.46310         1.71006
O         50.35680        27.44208         1.98926
H         50.38275        26.52425         2.33553
O         49.22743        30.75127        -2.10306
H         49.16236        31.65297        -2.48713
O         38.09141        24.04117         3.91148
H         37.41391        24.68668         4.20698
O         42.66303        48.93571         2.65651
H         42.68011        48.06045         3.09730
O         35.52652        28.60032         2.77643
H         34.90955        29.37656         2.80145
H         27.09430        28.17081         2.26382
H         25.95664        30.23171         1.06599
H         26.07378        32.03414        -0.55134
H         25.81783        33.08056        -2.35409
H         25.76958        35.47250        -2.05306
H         25.68344        37.56750        -2.07472
H         25.74866        39.94678        -1.64003
H         25.84201        42.14513        -1.31873
H         25.86972        44.00792         0.29290
H         27.11632        45.48093         1.94932
H         29.14102        26.88351         2.62743
H         29.16185        46.75650         2.11758
H         32.77211        24.32135         2.69135
H         30.67944        25.52154         2.35985
H         32.98511        48.88196         2.64102
H         31.07050        47.40613         2.83388
H         34.34403        23.27291         2.50397
H         34.32516        50.33751         1.81118
H         36.37110        21.99981         2.76283
H         36.42350        51.56257         2.12981
H         39.94945        19.55615         1.98706
H         37.96860        20.93734         2.47301
H         40.18844        53.81092         2.25066
H         38.06936        52.55738         2.24063
H         42.36490        19.37233         1.44933
H         42.58987        53.97403         1.75167
H         44.55580        20.45482         1.09314
H         44.71307        52.95372         1.07341
H         48.39643        22.50561         0.31512
H         46.29918        21.34196         0.61524
H         48.50830        50.67303         1.73956
H         46.40369        51.90774         1.63584
H         50.12327        23.41006         0.35767
H         50.12654        49.86278         0.80158
H         52.20943        24.54579        -0.08437
H         52.21055        48.64235         0.40026
H         55.91841        26.74143        -0.97534
H         53.84542        25.50067        -0.56895
H         55.01093        46.43257        -2.27717
H         53.14967        47.59210        -1.20697
H         57.13681        28.85264        -1.22049
H         57.18534        31.31068        -1.26225
H         57.16049        33.19223        -1.47987
H         57.21477        35.63182        -1.49629
H         57.14719        37.66770        -1.73287
H         57.06021        40.08557        -1.71274
H         56.76113        41.95101        -2.16468
H         56.47191        44.34443        -2.54578
