         420
 CSIRO Nanostructure Databank - Neutral Graphene Oxide Data Set
C         27.89719        27.37953        -0.08891
C         27.81312        28.71024         0.52075
C         26.69485        29.61698         0.23996
C         27.90763        31.61086         1.04954
C         26.75110        30.95832         0.51917
C         27.92663        33.01962         1.31442
C         26.75811        33.77377         1.45010
C         27.89426        35.94145         1.23321
C         26.74623        35.18964         1.37903
C         27.86823        37.35259         0.67408
C         26.66312        38.16470         1.06732
C         27.89470        40.26660         0.77518
C         26.68349        39.51788         1.03297
C         27.89559        41.68033         0.65748
C         26.67312        42.43874         0.64190
C         27.89580        44.53423         0.39420
C         26.66998        43.79923         0.50301
C         27.90731        45.94927         0.32063
C         30.34191        27.31238         0.21889
C         29.06669        26.68364        -0.05698
C         30.38553        28.70118         0.49021
C         29.15429        29.37554         0.90768
C         30.49267        31.60811         1.05669
C         29.14585        30.84834         1.19531
C         30.46122        33.07130         0.93436
C         29.22176        33.73147         1.40497
C         30.38903        35.97967         0.90745
C         29.19176        35.27262         1.35379
C         30.43927        37.43829         1.20526
C         29.14072        38.13924         0.88709
C         30.38744        40.25684         0.63355
C         29.13645        39.52961         0.76337
C         30.35501        41.65434         0.46140
C         29.13723        42.38294         0.50021
C         30.33630        44.58135         0.35422
C         29.12914        43.82995         0.39013
C         30.34853        45.98913         0.29742
C         29.09449        46.65696         0.26856
C         32.83625        24.48304        -0.14856
C         31.62634        25.17919         0.02984
C         32.79577        27.31934        -0.39960
C         31.56037        26.57198         0.02702
C         32.82049        28.77998        -0.02284
C         31.58743        29.47598         0.27640
C         32.75012        31.66061         0.01288
C         31.60682        30.86628         0.46446
C         32.81310        33.11299         0.25662
C         31.58763        33.78949         0.55606
C         32.86061        35.98363         0.39337
C         31.52688        35.27289         0.24997
C         32.87464        37.39474         0.46318
C         31.65508        38.13397         0.65124
C         32.90700        40.24968         0.48685
C         31.62331        39.51962         0.54776
C         32.89994        41.72929         0.34379
C         31.58660        42.39303        -0.00421
C         32.90201        44.57416         0.28143
C         31.60411        43.83817         0.44470
C         32.84948        46.03735         0.08615
C         31.62230        46.71926         0.19100
C         32.83282        48.83934        -0.00701
C         31.65150        48.14159         0.13566
C         35.39730        23.03163        -0.48399
C         35.34574        24.43492        -0.35304
C         34.08117        25.14143        -0.24401
C         35.29911        27.25857        -0.11149
C         34.09256        26.57132        -0.17598
C         35.28712        28.71045         0.16027
C         34.02203        29.44894        -0.00613
C         35.32502        31.66195        -0.01365
C         34.07288        30.90270        -0.16889
C         35.29386        33.08089         0.02814
C         34.03921        33.80481         0.12760
C         35.31629        35.94210         0.15245
C         34.06199        35.24604         0.23350
C         35.33248        37.36785         0.11675
C         34.12098        38.10418         0.26421
C         35.34516        40.22121        -0.10601
C         34.15232        39.51503         0.21856
C         35.35292        41.67936        -0.29727
C         34.13065        42.43434        -0.10691
C         35.25138        44.58280        -0.61416
C         34.08641        43.81175        -0.17655
C         35.29576        46.03534        -0.35738
C         34.07226        46.74361        -0.13322
C         35.32928        48.86750        -0.28455
C         34.07711        48.16881        -0.15362
C         35.36269        50.29313        -0.53447
C         37.82392        23.03122        -0.76034
C         36.59922        22.35495        -0.69720
C         37.83413        24.47154        -0.59263
C         36.57524        25.17317        -0.39805
C         37.76318        27.36175        -0.39562
C         36.55380        26.58439        -0.25948
C         37.80265        28.73986        -0.17120
C         36.56824        29.47527         0.18797
C         37.76333        31.65812         0.14669
C         36.54979        30.96186         0.07238
C         37.77048        33.07493         0.12942
C         36.53578        33.79066         0.07550
C         37.78690        35.93711         0.03507
C         36.54478        35.22411         0.08345
C         37.79360        37.34479        -0.10461
C         36.55762        38.07436        -0.09321
C         37.77256        40.16124        -0.78496
C         36.53434        39.48497        -0.26611
C         37.81591        41.66365        -0.57322
C         36.55327        42.35869        -0.54070
C         37.80499        44.59505        -0.61993
C         36.55714        43.82157        -0.76560
C         37.78356        45.97849        -0.50381
C         36.52194        46.71438        -0.40226
C         37.81872        48.85734        -0.21091
C         36.53430        48.13969        -0.29891
C         37.82196        50.37703        -0.40107
C         36.51833        50.98629        -0.69971
C         40.34551        20.54297        -2.16433
C         39.11670        21.14409        -1.73053
C         40.33231        23.06443        -0.63990
C         39.06591        22.34603        -1.06456
C         40.30519        24.51377        -1.18420
C         39.01605        25.19285        -0.76292
C         40.31019        27.43430        -0.81868
C         38.98012        26.65200        -0.82181
C         40.23460        28.83148        -0.37835
C         39.03445        29.47356        -0.15436
C         40.27957        31.65949         0.21980
C         39.01666        30.87074         0.45191
C         40.26145        33.07562         0.28035
C         39.01854        33.79905         0.20864
C         40.27670        35.91963         0.15971
C         39.02845        35.20552         0.13029
C         40.29525        37.33880        -0.02128
C         39.04876        38.06849        -0.20429
C         40.28657        40.18817        -0.59726
C         39.03815        39.44094        -0.40891
C         40.27976        41.67157        -0.52044
C         39.01529        42.35815        -0.62649
C         40.31519        44.52010        -0.42080
C         39.07249        43.84318        -0.93179
C         40.26869        45.96237        -0.20687
C         39.02972        46.72068        -0.42470
C         40.31781        48.84679        -0.54350
C         39.08309        48.11542        -0.39576
C         40.30262        50.26869        -0.80860
C         39.09529        51.01902        -0.81044
C         40.30251        53.03796        -1.44440
C         39.11861        52.39095        -1.14122
C         42.83076        20.60867        -2.38040
C         41.55871        21.13451        -1.91784
C         42.85638        23.15858        -1.09601
C         41.60873        22.35634        -1.08503
C         42.78704        24.58818        -0.69465
C         41.56257        25.27094        -0.76452
C         42.77819        27.32293        -0.25887
C         41.57288        26.67209        -0.60780
C         42.80494        28.80457        -0.32385
C         41.50289        29.57222        -0.33860
C         42.73411        31.66967         0.19615
C         41.49533        30.98790         0.05941
C         42.72633        33.07393         0.38403
C         41.49943        33.78528         0.32955
C         42.74549        35.93137         0.38781
C         41.50192        35.21946         0.30127
C         42.74946        37.35170         0.29623
C         41.52625        38.01599        -0.00506
C         42.77614        40.19093        -0.01236
C         41.57741        39.43562        -0.37244
C         42.68782        41.64071         0.06388
C         41.46497        42.36719        -0.32840
C         42.77916        44.53668        -0.26989
C         41.50401        43.82473        -0.28317
C         42.82373        45.94864        -0.45599
C         41.60007        46.73011        -0.23468
C         42.77539        48.79898        -0.91659
C         41.56376        48.15739        -0.58928
C         42.76921        50.21193        -1.17747
C         41.53104        50.93049        -1.13333
C         42.74865        52.97786        -1.76468
C         41.52951        52.32488        -1.44287
C         43.97971        21.32748        -2.36443
C         45.29878        23.32945        -1.41788
C         44.00387        22.80071        -2.02400
C         45.22403        24.40122        -0.49145
C         43.99845        25.20510        -0.30757
C         45.18416        27.38231         0.32847
C         43.98312        26.60659        -0.00497
C         45.22060        28.79683         0.27969
C         44.00620        29.54691         0.09307
C         45.19507        31.62769         0.75632
C         43.96838        30.92081         0.24461
C         45.17795        33.09786         0.46321
C         43.98613        33.79203         0.46621
C         45.20044        35.95671         0.66236
C         43.98371        35.23836         0.48862
C         45.16671        37.38258         0.74599
C         43.97950        38.07913         0.45536
C         45.19617        40.26011         0.24775
C         43.96706        39.53255         0.30676
C         45.24649        41.63833        -0.02090
C         44.01329        42.41555         0.10646
C         45.24045        44.47916        -0.48442
C         44.00590        43.83082        -0.26708
C         45.25883        45.88487        -0.74253
C         44.03005        46.61614        -0.73309
C         45.21722        48.69758        -1.27527
C         44.03324        48.06020        -0.96789
C         45.28175        50.16407        -1.62879
C         43.96816        50.89339        -1.49478
C         43.93861        52.27034        -1.79013
C         47.75255        23.43464        -1.32845
C         46.56649        22.85271        -1.79443
C         47.71760        24.42861        -0.32887
C         46.43071        24.75111         0.14385
C         47.67563        27.35056         0.52199
C         46.40348        26.76522         0.70326
C         47.69949        28.77177         0.44087
C         46.46617        29.48802         0.43046
C         47.70814        31.58609         0.44970
C         46.48773        30.91093         0.45212
C         47.73740        33.05346         0.28792
C         46.44018        33.82652         0.29974
C         47.70021        35.89542         0.76092
C         46.46239        35.25987         0.62706
C         47.76208        37.35716         1.15234
C         46.43463        38.11468         0.98466
C         47.69454        40.15274        -0.00784
C         46.45270        39.56239         0.57110
C         47.70098        41.56268        -0.47863
C         46.45401        42.33973        -0.30973
C         47.73841        44.43280        -0.55750
C         46.47332        43.73340        -0.47266
C         47.72182        45.86563        -0.68594
C         46.50179        46.54476        -0.89026
C         47.68830        48.73011        -0.72696
C         46.53946        47.96877        -1.36217
C         47.50318        50.12059        -0.45677
C         46.37425        50.80370        -0.80577
C         50.15998        24.52735         0.04337
C         48.91118        25.18200         0.10964
C         50.14275        27.29780         0.51753
C         48.89887        26.57719         0.43214
C         50.16098        28.73214         0.61094
C         48.94169        29.46822         0.52128
C         50.18235        31.60942         0.70146
C         48.94671        30.88860         0.53315
C         50.16313        33.04103         0.79042
C         48.98105        33.76683         0.60886
C         50.20182        35.90489         0.72656
C         48.93667        35.18920         0.69676
C         50.21284        37.31894         0.63282
C         48.90388        37.99826         0.33014
C         50.13221        40.22587         0.44730
C         48.96671        39.50058         0.34755
C         50.22263        41.60554         0.01463
C         49.03777        42.25853        -0.70128
C         50.19045        44.46338        -0.34591
C         48.96508        43.75247        -0.47890
C         50.16831        45.90248        -0.33173
C         48.94792        46.59972        -0.56246
C         50.12047        48.72872        -0.19932
C         48.90221        48.04068        -0.50393
C         51.35447        25.19705         0.25705
C         52.63233        27.32240         0.60506
C         51.38404        26.59500         0.46060
C         52.61472        28.72021         0.78531
C         51.39406        29.45050         0.74575
C         52.66159        31.62012         0.85902
C         51.39790        30.88640         0.81471
C         52.67452        33.03103         0.87705
C         51.40881        33.76406         1.23334
C         52.64975        35.93316         0.75983
C         51.42411        35.22346         0.85561
C         52.65557        37.35990         0.65610
C         51.40103        38.04029         0.74234
C         52.88966        40.25538        -0.30578
C         51.23456        39.47762         1.16026
C         52.72789        41.62964        -0.00583
C         51.44169        42.30492        -0.09140
C         52.62205        44.48517         0.08491
C         51.42213        43.75607        -0.16686
C         52.60365        45.91693         0.11845
C         51.37590        46.62668        -0.09282
C         51.30265        48.05385        -0.02889
C         55.09478        27.33607         0.50020
C         53.89097        26.64552         0.51487
C         55.13672        28.72980         0.67982
C         53.89159        29.43630         1.14108
C         55.12329        31.60595         0.77154
C         53.89283        30.91433         0.83910
C         55.13076        33.04644         0.73981
C         53.89480        33.75761         0.80400
C         55.11562        35.91353         0.77787
C         53.89690        35.20149         0.78328
C         55.11771        37.36698         0.72990
C         53.90883        38.07578         0.51013
C         55.14888        40.22748         0.60830
C         53.97952        39.49811         0.25348
C         55.13330        41.67625         0.57890
C         53.90388        42.36102         0.35772
C         55.03939        44.51996         0.62913
C         53.84964        43.79026         0.37240
C         54.99741        45.94624         0.62788
C         53.82309        46.61362         0.38871
C         56.33836        29.46870         0.60056
C         56.34378        30.84868         0.69546
C         56.33931        33.79767         0.71112
C         56.33340        35.17328         0.75419
C         56.31626        38.10932         0.92079
C         56.31397        39.48783         0.94917
C         56.30256        42.44618         0.82976
C         56.25703        43.82345         0.86121
O         33.26259        31.32742        -1.32098
O         29.97965        31.15172         2.35055
O         40.95153        46.39703         1.02632
O         46.33925        25.50999         1.31911
O         42.61323        22.22384         0.00436
O         29.39711        34.51544         2.62133
O         43.25477        42.15076         1.32771
O         28.32688        28.69057         1.89345
O         46.41918        39.19020         1.99727
O         41.08882        39.70430        -1.75260
O         35.95607        29.02677         1.46191
O         37.88427        49.77754         0.93473
O         47.51401        40.44434        -1.44725
O         42.26436        29.33343        -1.58739
O         35.75879        44.21623        -1.94967
O         32.41023        44.13608         1.61495
O         39.60884        27.15647        -2.07294
O         51.78003        39.92045         2.15912
O         33.00241        41.17292         1.67756
O         47.12668        33.49132        -0.98479
O         46.87398        47.89200        -2.79583
H         46.74275        48.80779        -3.15415
O         38.98460        30.64205         1.90546
H         38.12867        30.20974         2.12012
O         31.24453        35.31688        -1.21191
H         31.96604        34.82294        -1.65931
O         48.12594        37.38411         2.54400
H         47.71199        38.18668         2.93935
O         52.08564        39.64924        -1.22194
H         51.45440        40.30795        -1.58527
O         31.53094        42.40353        -1.46383
H         30.65038        42.74014        -1.73364
O         43.76998        23.53753        -3.25797
H         44.50065        23.33482        -3.87814
O         37.69881        40.01318        -2.25652
H         38.59897        40.17816        -2.61372
O         32.67478        27.36397        -1.88175
H         32.61982        26.43460        -2.19260
O         53.95591        29.36789         2.63065
H         54.79932        29.79381         2.89643
O         30.59316        37.54154         2.68478
H         30.62807        38.49672         2.90896
O         49.35899        42.11078        -2.12770
H         48.78027        41.38663        -2.46683
O         39.19277        43.90275        -2.40835
H         38.32647        43.62640        -2.78050
O         45.09131        31.55624         2.23850
H         45.08133        30.60632         2.48516
O         40.29728        24.44789        -2.63117
H         40.18070        25.37271        -2.95409
O         48.56899        37.65796        -1.05059
H         49.22703        38.07616        -1.64412
O         27.76079        37.15243        -0.79220
H         27.77128        38.04182        -1.20653
O         40.32575        23.15296         0.79939
H         41.19674        22.80381         1.10810
O         45.68721        50.28588        -3.04991
H         44.89705        50.08734        -3.59648
O         51.36052        33.74385         2.71368
H         52.12204        34.27053         3.03789
H         26.98864        26.92988        -0.51558
H         25.81117        29.20501        -0.26908
H         25.87122        31.57594         0.28764
H         25.78920        33.25803         1.50199
H         25.76198        35.67638         1.32157
H         25.71567        37.64790         1.27595
H         25.75598        40.06459         1.25401
H         25.71220        41.91491         0.73185
H         25.71921        44.35166         0.49175
H         26.94934        46.48917         0.31610
H         29.07820        25.65308        -0.43996
H         29.05194        47.75264         0.21133
H         32.79849        23.38546        -0.13592
H         30.71878        24.58994         0.22603
H         32.80034        49.93707         0.00453
H         30.71887        48.71172         0.24026
H         34.47064        22.44342        -0.44332
H         34.41111        50.81165        -0.71698
H         36.57675        21.26167        -0.80867
H         36.47327        52.02840        -1.04573
H         40.29578        19.62035        -2.76067
H         38.18022        20.64652        -2.02359
H         40.30289        54.11108        -1.68173
H         38.18512        52.96960        -1.13246
H         42.84520        19.57462        -2.76009
H         42.73531        54.05035        -2.00514
H         44.90579        20.86337        -2.73778
H         44.87415        52.78008        -2.06065
H         48.71224        23.10732        -1.75234
H         46.63726        22.04396        -2.53629
H         48.29055        50.66029         0.09148
H         46.25538        51.85374        -0.50098
H         50.18603        23.44912        -0.16840
H         50.12088        49.82603        -0.14246
H         52.28699        24.61917         0.22375
H         52.21069        48.63914         0.16699
H         56.03225        26.79036         0.31484
H         53.91656        25.55693         0.37716
H         55.92229        46.50709         0.82563
H         53.83069        47.71125         0.40704
H         57.28376        28.93220         0.42901
H         57.30551        31.37358         0.62976
H         57.30688        33.28069         0.66492
H         57.29548        35.70190         0.73133
H         57.25547        37.58330         1.13769
H         57.24342        40.01286         1.20596
H         57.26359        41.94315         1.00240
H         57.17159        44.40100         1.05791
