         276
 CSIRO Nanostructure Databank - Neutral Graphene Oxide Data Set
C        -11.18130         0.62989        -0.03463
C         -9.96860         1.42385         0.14697
C         -8.75253         0.66108         0.65444
C         -7.46874         1.38588         0.27511
C         -6.16757         0.73771         0.67853
C         -4.90203         1.45922         0.29268
C         -3.78458         0.68761        -0.33069
C         -2.50919         1.46375        -0.48341
C         -1.20131         0.77042        -0.29520
C          0.05285         1.33925        -0.92136
C          1.33048         0.67441        -0.50750
C          2.61670         1.41204        -0.63889
C          3.78577         0.80510        -0.28788
C          5.10193         1.40716        -0.75594
C          6.36390         0.85132        -0.05699
C          7.61105         1.56533        -0.65833
C          8.90470         0.81800        -0.28143
C          9.88730         1.49783         0.60098
C         10.80048         0.65241         1.35604
C         -9.98250         2.77253        -0.03773
C         -8.75790         3.64670        -0.25327
C         -7.47076         2.83641        -0.05487
C         -6.23929         3.62969         0.36615
C         -4.92127         2.92388         0.05796
C         -3.97299         3.55524        -0.97122
C         -2.60462         2.82487        -1.11876
C         -1.30487         3.53224        -1.41816
C          0.03826         2.72448        -1.64992
C          1.33796         3.56552        -1.50572
C          2.66130         2.76725        -1.37322
C          3.77524         3.62484        -0.75090
C          5.06000         2.90824        -0.47920
C          6.32681         3.63695        -0.23092
C          7.52974         2.99865        -0.16789
C          8.72197         3.67576         0.32696
C          9.82653         2.85928         0.78420
C         -8.68724         4.99471         0.46896
C         -7.54529         5.71878         0.41481
C         -6.33344         5.05136        -0.14239
C         -5.07116         5.79572        -0.40847
C         -3.78418         5.01046        -0.51424
C         -2.45435         5.70400        -0.54764
C         -1.27886         5.05426        -1.28529
C          0.01409         5.83064        -1.40034
C          1.34626         5.08440        -1.45573
C          2.62592         5.80587        -1.08679
C          3.77815         5.11763        -0.84635
C          5.16119         5.78661        -0.77622
C          6.16140         5.07898         0.17647
C          7.49141         5.80785         0.24154
C          8.68822         5.05107         0.48487
C         -7.22646         7.01514         1.11513
C         -6.29635         7.98289         0.31894
C         -5.04051         7.28963        -0.25943
C         -3.71767         7.98525        -0.27413
C         -2.40696         7.19184        -0.09171
C         -1.23029         8.00330        -0.60768
C          0.01073         7.32567        -1.09070
C          1.32690         8.06221        -1.03458
C          2.63450         7.30009        -1.15868
C          3.92007         8.02061        -0.83298
C          5.10426         7.26283        -0.44358
C          6.22676         7.90752         0.05771
C          7.46142         7.17834         0.27624
C         -5.88181         9.08828         1.28430
C         -4.69785         9.70979         1.26595
C         -3.66612         9.45588         0.18660
C         -2.27959         9.92491         0.55185
C         -1.13376         9.33732         0.05859
C          0.13932         9.94842         0.16616
C          1.33822         9.38774        -0.34266
C          2.53128        10.04122        -0.05616
C          3.85249         9.49893        -0.34789
C          5.01147        10.01374         0.39207
C          6.15744         9.29216         0.47656
C        -11.21249        -0.71605         0.04047
C        -10.03457        -1.57365         0.45425
C         -8.69763        -0.81204         0.15165
C         -7.42307        -1.52653         0.64500
C         -6.14842        -0.75198         0.74211
C         -4.83077        -1.51799         0.63395
C         -3.73266        -0.77557        -0.13232
C         -2.41999        -1.45297         0.00103
C         -1.18967        -0.69676         0.02587
C          0.00222        -1.32331         0.28860
C          1.24378        -0.47282         0.51478
C          2.55877        -1.28618         0.56914
C          3.84147        -0.57637         0.26706
C          5.11166        -1.37893         0.05827
C          6.41624        -0.67665        -0.12569
C          7.64758        -1.40144        -0.63150
C          8.95725        -0.68224        -0.39249
C         10.15657        -1.47754         0.16294
C         10.83532        -0.70004         1.27407
C        -10.03582        -2.91532        -0.27958
C         -9.16230        -3.91207         0.09876
C         -7.32024        -2.86524         0.88211
C         -6.11407        -3.68398         0.62052
C         -5.03799        -2.86202        -0.08554
C         -3.66323        -3.56047        -0.34149
C         -2.48511        -2.81103         0.23706
C         -1.31052        -3.53207         0.72618
C         -0.01324        -2.73863         0.72695
C          1.23874        -3.51949         0.50592
C          2.53428        -2.78339         0.36208
C          3.85493        -3.55628         0.50453
C          5.00018        -2.84628        -0.21419
C          6.26422        -3.60548        -0.43204
C          7.60055        -2.89902        -0.59371
C          8.80187        -3.65422        -0.10423
C          9.86251        -2.93024         0.45566
C         -8.77780        -5.14243        -0.50018
C         -7.53324        -5.82214        -0.24567
C         -6.25219        -5.12283         0.17391
C         -4.98442        -5.72296        -0.41774
C         -3.69113        -5.04724        -0.07282
C         -2.53693        -5.73515         0.13301
C         -1.40797        -5.05493         0.91768
C         -0.04474        -5.79168         0.83814
C          1.24371        -4.98528         0.84434
C          2.52839        -5.70742         0.65807
C          3.70848        -5.00871        -0.01964
C          5.02081        -5.77615         0.09146
C          6.33237        -5.02680         0.10924
C          7.51051        -5.77755        -0.56064
C          8.75563        -5.05988        -0.09663
C         -7.46500        -7.14263        -0.66754
C         -6.24351        -8.01811        -0.75772
C         -4.97204        -7.18472        -0.70340
C         -3.66308        -8.00694        -0.66226
C         -2.56491        -7.24854         0.19628
C         -1.22159        -7.93908        -0.16960
C         -0.00825        -7.23425         0.40785
C          1.27163        -7.91345        -0.01770
C          2.52123        -7.16741         0.30003
C          3.82347        -7.79852         0.74127
C          5.04891        -7.13606         0.20426
C          6.27730        -7.91607        -0.01846
C          7.45417        -7.27046        -0.29370
C         -6.19917        -9.19643         0.19816
C         -5.05331        -9.87745         0.41683
C         -3.74257        -9.37119         0.02906
C         -2.59269       -10.05334         0.29458
C         -1.21386        -9.40678         0.37476
C         -0.02486       -10.18901        -0.23785
C          1.30474        -9.40180        -0.20572
C          2.46407       -10.08291        -0.49506
C          3.80650        -9.57327        -0.81283
C          5.03478       -10.11816        -0.26526
C          6.16488        -9.37757        -0.00442
O         -2.88648         4.94299         0.63841
O         -4.47115         7.85501        -1.50742
O          1.77984        -3.17501        -0.81518
O          3.85477        -8.57878         1.68471
O          3.39030        -0.79775         1.65844
O          0.70413         0.34732        -1.78059
O         -5.02223        -6.20307        -1.78194
O         -0.01092        -6.88630         1.80871
O          4.07961         3.18831         0.61811
O         -2.19369         3.03959        -2.49061
O         -4.13034        -0.20370        -1.42489
O          2.04142        -7.24853        -1.08901
O         -1.75912         1.58289         0.78078
O         -0.86163         5.61783        -2.54831
O          7.64029        -2.17095        -1.86577
O          6.04397        -1.21999         1.19022
O         -6.14278         0.09349         1.97692
O         -3.36961        -3.51493        -1.72419
O          9.43484         0.15968        -1.49284
O          5.33957        -3.33892        -1.53793
O          2.00252         7.91597        -2.31831
O          1.48286         4.38942        -2.71235
O          2.14425        -5.29868         1.98695
O         -0.92890         8.01145        -2.00989
O         -8.42626        -3.63122         1.27644
O          4.15472         9.13792        -1.73258
O         -0.73001        -2.96108         1.97071
O         -5.90608        -4.77459         1.56404
O         -4.33440         2.39661         1.27571
O         -5.98414         5.38008        -1.49580
O         -7.32094         1.83930        -1.11742
O         -3.37818        -8.22482        -2.00934
O          5.19924         1.04373        -2.13646
H          4.48672         1.51241        -2.64375
O         -0.25813       -10.51422        -1.60445
H         -0.56286        -9.68203        -2.04557
O          3.37826        -5.04896        -1.41670
H          4.05337        -4.52332        -1.91293
O         -7.06395         8.53550        -0.75685
H         -6.43760         8.82396        -1.45546
O          7.38060        -5.65364        -2.00247
H          7.76098        -4.79494        -2.28723
O         11.17138        -1.56627        -0.88496
H         11.00099        -0.81470        -1.50264
O        -10.15762        -1.75326         1.88384
H         -9.55842        -2.49740         2.13903
O          7.54713         1.65952        -2.08038
H          8.08871         0.93149        -2.46513
O         -4.64296         3.42878        -2.21668
H         -4.00214         3.61031        -2.94000
O         -1.85803        -5.21293         2.29576
H         -1.37184        -4.55568         2.84672
O         -6.34796         3.78028         1.80879
H         -5.69655         3.15161         2.21375
O          3.04105         2.46997        -2.73895
H          2.21284         2.29382        -3.24628
O         -4.02953        10.30527        -0.93870
H         -4.18987         9.71580        -1.71270
O         -5.62281        -2.58079        -1.36160
H         -4.90068        -2.82187        -2.02056
O         -6.26407        -8.59734        -2.09007
H         -5.32475        -8.58636        -2.41436
O         -8.59813        -0.79816        -1.28361
H         -7.83789        -0.24093        -1.55835
O         -8.82030         0.65519         2.09168
H         -9.44393        -0.06669         2.35526
O          5.70632         5.65787        -2.11272
H          5.17831         6.21546        -2.72291
O          6.67115        -4.91186         1.51481
H          5.93730        -4.42038         1.96425
O         -0.90314        -9.37696         1.78378
H         -1.59172        -8.81077         2.21104
O          4.23174        -3.61310         1.89372
H          3.50895        -4.07678         2.38708
O         -2.87650        -7.57285         1.57145
H         -2.63382        -6.79351         2.13659
O         -4.35185        -1.79704         1.95722
H         -4.66687        -1.07323         2.54703
O          6.33730         1.24488         1.32265
H          5.94397         0.50299         1.84234
O          3.97424        -8.68146        -1.76582
H          3.12123        -8.21684        -1.99925
O         -0.96276        -7.91870        -1.57786
H         -1.85460        -7.96967        -2.06294
O         -2.17353         7.19639         1.33849
H         -2.61916         6.40059         1.71811
O         -8.81084         3.98505        -1.66364
H         -8.47336         3.20792        -2.16253
O         -6.50972         6.65327         2.31268
H         -6.60340         5.68215         2.46024
O          5.63647         5.14592         1.52517
H          4.99689         4.39869         1.62726
O          0.09937         2.38561        -3.04550
H         -0.80757         2.16158        -3.35606
O          1.05112         0.14648         1.80280
H          1.91240         0.11982         2.28360
H         11.53453        -1.25520         1.91771
H         11.43482         1.15865         2.10092
H         10.59157         3.34400         1.41131
H          9.59737         5.58894         0.79617
H          8.37980         7.75350         0.46916
H          7.03391         9.71422         0.98959
H          4.93067        11.00037         0.87167
H          2.48528        10.95381         0.55868
H          0.20610        10.92433         0.67087
H         -2.20425        10.90960         1.03971
H         -4.48822        10.51202         1.99067
H         -6.62569         9.37145         2.04494
H         -8.16315         7.57371         1.38558
H         -9.60133         5.41256         0.91827
H        -10.93825         3.23793        -0.33322
H        -12.09745         1.17422        -0.31418
H        -12.16380        -1.23904        -0.14272
H        -10.61893        -3.01389        -1.20658
H         -9.47475        -5.62769        -1.20210
H         -8.36758        -7.56386        -1.14121
H         -7.15474        -9.60307         0.56155
H         -5.07952       -10.80802         1.00679
H         -2.66490       -11.05215         0.75792
H          0.11064       -11.14775         0.32436
H          2.40347       -11.18573        -0.45906
H          5.02862       -11.18030         0.02361
H          7.06241        -9.93213         0.31453
H          8.34667        -7.86320        -0.55024
H          9.60225        -5.62451         0.32034
H         10.70162        -3.50320         0.88074
