         621
 CSIRO Nanostructure Databank - Neutral Graphene Oxide Data Set
C          6.30438        31.83513        -1.23150
C          6.15864        33.09938        -0.75559
C          8.99322        27.73474        -1.87112
C          8.97012        29.18476        -1.93251
C          7.71573        29.82306        -1.75254
C          8.77463        31.94683        -1.19163
C          7.59666        31.18047        -1.39841
C          8.65990        33.27089        -0.53735
C          7.30486        33.87159        -0.22858
C          8.32791        36.06107         0.42594
C          7.21798        35.32836         0.07433
C          8.37338        37.48909         0.63597
C         10.95660        23.27443        -0.58425
C         11.04771        24.61884        -0.89172
C          9.79872        25.41742        -1.25371
C         11.41262        27.20215        -2.01560
C         10.06444        26.84873        -1.73323
C         11.45241        29.47471        -2.09076
C         10.14014        30.02690        -1.90881
C         11.26271        32.16021        -1.19745
C         10.03189        31.38637        -1.48333
C         11.18567        33.51615        -0.53977
C          9.84428        34.18270        -0.49081
C         10.79434        35.98491         1.09829
C          9.68643        35.47568         0.22440
C         10.76210        37.45826         1.50614
C          9.55653        38.17331         0.91584
C         10.83731        40.29681         0.95464
C          9.63809        39.58593         0.80170
C         10.87895        41.69439         0.67855
C         13.24952        19.00887         0.14358
C         13.01881        20.33390         0.82507
C         11.97821        21.14786         0.10959
C         13.37096        23.17580         0.02081
C         12.09545        22.50507        -0.14064
C         13.47368        24.50860        -0.41775
C         12.34256        25.23106        -0.87901
C         13.84624        27.10276        -1.48110
C         12.53286        26.51509        -1.50803
C         13.79443        29.27292        -1.27738
C         12.55773        29.97675        -1.41726
C         13.46711        31.73749         0.11894
C         12.53550        31.37817        -0.96728
C         13.36817        33.05687         0.79765
C         12.26944        33.98675         0.37603
C         13.33696        35.98701         1.43057
C         12.07090        35.22373         1.21919
C         13.30725        37.45156         1.39514
C         12.10368        38.15315         1.28597
C         13.28838        40.31362         1.27066
C         12.09780        39.59346         1.20735
C         13.25651        41.81683         1.44608
C         12.04535        42.45623         0.79339
C         13.27616        44.59220         0.41920
C         12.10326        43.80920         0.39495
C         13.27593        45.91926        -0.03069
C         15.82726        15.02086        -1.05771
C         15.76552        16.29754        -0.52163
C         14.54784        17.00379        -0.38975
C         15.65206        18.90508         0.75695
C         14.46584        18.32028         0.16386
C         15.60926        20.29284         1.26659
C         14.33133        21.09314         1.07774
C         15.79541        23.03121         0.52354
C         14.51352        22.47671         0.56878
C         16.00864        24.37055        -0.06318
C         14.80744        25.13741        -0.50408
C         15.96594        27.38929        -0.15331
C         14.87872        26.60939        -0.68717
C         15.87695        28.77992         0.07909
C         14.67444        29.55489        -0.23027
C         16.03892        31.74429         1.18281
C         14.31022        30.73160         0.55292
C         15.91772        33.14779         1.17457
C         14.60223        33.80909         1.35673
C         15.76456        36.06059         1.12267
C         14.52444        35.29859         1.34102
C         15.79163        37.50190         1.41250
C         14.56997        38.17628         1.43140
C         15.74737        40.32939         1.25633
C         14.55083        39.62795         1.35818
C         15.73133        41.74749         0.85340
C         14.51836        42.50951         1.02295
C         15.81055        44.64871         0.54060
C         14.53301        44.00816         1.04886
C         15.75587        46.09729         0.25642
C         14.45030        46.71246        -0.10959
C         15.63896        48.77804        -0.78012
C         14.43475        48.05479        -0.49016
C         15.69633        50.15068        -0.85352
C         18.21185        10.68514        -1.65823
C         18.16559        12.05281        -1.20704
C         17.10655        12.87049        -1.54196
C         18.04168        14.65953        -0.06199
C         17.16234        14.35794        -1.28972
C         18.19816        16.13718         0.16035
C         17.04919        17.02892        -0.22039
C         18.08287        18.81695         1.14376
C         16.90706        18.25972         0.63246
C         18.08522        20.20477         1.73927
C         16.90510        21.00248         1.26368
C         18.34706        22.95583         0.62655
C         16.98546        22.32959         0.94502
C         18.34767        24.46938         0.74041
C         17.22056        25.13481         0.32407
C         18.36093        27.34138         0.83243
C         17.10159        26.61186         0.44567
C         18.40287        28.84755         0.67116
C         17.07628        29.56812         0.54679
C         18.03392        31.89332        -0.07233
C         17.02469        31.07555         0.43601
C         18.19653        33.23802         0.28161
C         17.06519        33.87870         0.81564
C         18.35519        35.97130         1.25300
C         17.03599        35.35318         0.86064
C         18.27617        37.49102         1.25637
C         17.07968        38.17391         1.41050
C         18.33376        40.45840         1.36176
C         17.04067        39.66127         1.49926
C         18.32192        41.84334         0.84375
C         17.02635        42.48985         0.57285
C         18.25746        44.62633         0.11313
C         16.99917        43.97182         0.45821
C         18.26033        45.97767        -0.30868
C         17.00824        46.76506        -0.23668
C         18.13962        48.71822        -1.38352
C         16.83150        47.93847        -1.19057
C         18.15610        50.18988        -1.27277
C         16.92714        50.87358        -1.08503
C         18.12144        52.99723        -1.24864
C         16.93570        52.28094        -1.06902
C         18.04670        54.50879        -1.29928
C         20.57478         6.44170        -2.64400
C         20.10729         7.47201        -1.82216
C         19.25086         8.54621        -2.13082
C         20.44002        10.27223        -0.61506
C         19.26670         9.80120        -1.44067
C         20.48358        11.73095        -0.24159
C         19.32687        12.60578        -0.51170
C         20.53417        14.50432         0.50636
C         19.34522        13.90621        -0.06349
C         20.56166        15.86182         0.85042
C         19.34372        16.65283         0.69674
C         20.58815        18.67759         1.67108
C         19.31091        18.02452         1.25333
C         20.60631        20.15526         1.96797
C         19.40652        20.93230         1.59785
C         20.76757        22.99049         1.49263
C         19.50337        22.27405         1.34674
C         20.77415        24.41368         1.29232
C         19.60064        25.14781         1.03524
C         20.78732        27.29456         1.31471
C         19.63453        26.59427         1.01202
C         20.92371        28.73703         0.98898
C         19.77040        29.43217         0.38242
C         20.91274        31.68675         0.59745
C         19.95862        30.87246         0.09618
C         20.78499        33.20673         0.69218
C         19.50833        33.94236        -0.07032
C         20.43459        36.24557        -0.06827
C         19.42828        35.40800         0.35259
C         20.66894        37.54114         0.44148
C         19.58227        38.18585         1.18917
C         20.80052        40.40892         0.68942
C         19.62359        39.71368         1.24194
C         20.76926        41.80671         0.51678
C         19.50141        42.51303         0.54672
C         20.70859        44.58975        -0.10997
C         19.48317        43.91071         0.15146
C         20.69749        45.95981        -0.49631
C         19.45738        46.61476        -0.67714
C         20.69342        48.79844        -1.07368
C         19.45012        48.00790        -1.17835
C         20.66524        50.18903        -1.29986
C         19.38111        50.89647        -1.35643
C         20.60380        53.09516        -1.57373
C         19.35039        52.31607        -1.39596
C         20.57964        54.54983        -1.15062
C         19.29401        55.16973        -0.76651
C         20.48309        57.09900         0.16863
C         19.26453        56.38064        -0.15483
C         20.43934        58.37109         0.70755
C         23.08713         3.75424        -3.16140
C         21.91734         4.49139        -3.15247
C         22.95080         6.17068        -1.68505
C         21.79122         5.70408        -2.41769
C         23.02297         7.46764        -1.04789
C         21.84113         8.20269        -0.71081
C         23.02063        10.31217        -0.75434
C         21.76046         9.57189        -0.69793
C         23.03856        11.76532        -0.24485
C         21.75752        12.42120         0.08546
C         22.95841        14.29660         1.23133
C         21.75107        13.71837         0.52451
C         23.00224        15.81210         1.16020
C         21.83089        16.52538         1.14179
C         23.11310        18.72183         1.65559
C         21.86916        18.05378         1.06677
C         23.15218        20.06213         1.88666
C         21.91554        20.86394         2.06896
C         23.20367        23.02214         2.07516
C         21.95896        22.32937         1.85773
C         23.27746        24.39961         1.86301
C         22.08093        25.09632         1.34877
C         23.25894        27.34170         1.93742
C         22.07857        26.61168         1.37621
C         23.29055        28.85678         1.96302
C         22.02979        29.57107         1.56746
C         23.35371        31.76874         1.44022
C         22.03770        31.05874         1.38055
C         23.34251        33.16156         1.04953
C         22.18070        33.80899         0.49795
C         23.40906        35.95194         0.35425
C         22.34233        35.10490        -0.01065
C         23.29825        37.42357         0.21937
C         21.95356        38.21906         0.25309
C         23.21036        40.39138         0.34749
C         22.00385        39.68682         0.49922
C         23.21541        41.80096         0.23944
C         21.97861        42.50520         0.23777
C         23.19750        44.62073        -0.08891
C         21.96889        43.91230         0.00919
C         23.16638        46.03926        -0.38317
C         21.93584        46.68578        -0.63992
C         23.14977        48.80377        -1.04010
C         21.92088        48.09747        -0.90574
C         23.12390        50.22600        -1.21648
C         21.89939        50.90577        -1.32754
C         23.11616        53.10056        -1.10166
C         21.93644        52.36584        -1.68566
C         23.06248        54.47344        -0.73862
C         21.82358        55.18467        -0.66946
C         22.96294        57.14198         0.28876
C         21.75710        56.45742        -0.08313
C         22.90158        58.46397         0.81232
C         21.63689        59.09510         1.01869
C         22.78493        61.08738         1.83936
C         21.59816        60.40420         1.53512
C         24.22438         4.23742        -2.49088
C         25.43297         5.93346        -1.10571
C         24.17133         5.43953        -1.79171
C         25.50447         7.44000        -1.00613
C         24.26189         8.14765        -0.89466
C         25.49048        10.25127        -0.50996
C         24.27907         9.55692        -0.67483
C         25.50219        11.63600        -0.09614
C         24.30298        12.29116         0.24079
C         25.59192        14.38504         0.77249
C         24.29768        13.60792         0.90028
C         25.49938        15.88261         0.57323
C         24.32554        16.48358         1.33238
C         25.63299        18.70301         1.30493
C         24.37602        17.94316         1.61300
C         25.67364        20.13606         1.72393
C         24.41333        20.76062         2.24787
C         25.80471        22.96327         2.58398
C         24.42787        22.25643         2.45578
C         25.74635        24.48075         2.37428
C         24.48682        25.16530         2.03838
C         25.72949        27.31601         1.86496
C         24.51732        26.56473         1.92898
C         25.72317        28.76914         1.99170
C         24.58027        29.60494         1.96405
C         25.76805        31.88817         1.79634
C         24.55009        31.07821         1.79637
C         25.78532        33.25028         1.36843
C         24.56533        33.91489         1.05887
C         25.81114        36.08008         0.86243
C         24.58322        35.32618         0.82270
C         25.79160        37.49016         0.66748
C         24.49826        38.19741         0.68128
C         25.75526        40.41710         0.33444
C         24.49134        39.69738         0.58764
C         25.71980        41.81418         0.13252
C         24.45406        42.52194         0.15005
C         25.74271        44.64063         0.27051
C         24.42986        43.92173         0.04874
C         25.59016        46.16504         0.17503
C         24.39120        46.77334        -0.47685
C         25.61917        48.83833        -1.36772
C         24.39096        48.09972        -0.93898
C         25.60685        50.30091        -1.13334
C         24.37758        50.96791        -1.14348
C         25.55853        53.09390        -0.70732
C         24.33835        52.39772        -0.99631
C         25.51603        54.47475        -0.38680
C         24.26675        55.14823        -0.33035
C         25.42901        57.19656         0.46554
C         24.21447        56.49675         0.12455
C         25.35427        58.52097         0.94637
C         24.11048        59.16280         1.13592
C         24.02190        60.48791         1.64719
C         26.69578         8.12397        -0.92208
C         27.94520        10.23832        -0.61066
C         26.73636         9.54174        -0.67633
C         27.98419        11.64101        -0.34808
C         26.76500        12.32740        -0.02120
C         28.00251        14.44444         0.17372
C         26.79814        13.71259         0.24576
C         28.02690        15.86128         0.46515
C         26.83609        16.57520         0.77732
C         28.11702        18.65347         0.98371
C         26.89219        17.94341         1.07567
C         28.21403        20.08564         1.39892
C         26.98890        20.83546         1.88714
C         28.16740        23.00117         1.57266
C         26.98409        22.30954         1.85056
C         28.21768        24.44611         1.59009
C         27.03100        25.21709         1.99239
C         28.19014        27.33289         1.41171
C         26.95523        26.64733         1.65978
C         28.21965        28.75063         1.70437
C         27.04673        29.27485         2.22728
C         28.26441        31.92145         1.78264
C         27.03144        31.39893         2.20709
C         28.25541        33.28195         1.41306
C         27.02656        33.97005         1.29560
C         28.26365        36.09365         0.88317
C         27.03935        35.38795         1.03766
C         28.23275        37.50936         0.46425
C         26.96424        38.24915         0.53121
C         28.21655        40.36796         0.15587
C         26.96808        39.66030         0.32354
C         28.14210        41.74200        -0.40108
C         26.91160        42.53501        -0.25420
C         28.13117        44.61520        -0.83742
C         26.91749        43.92622        -0.44352
C         28.12761        46.03687        -1.15256
C         27.03600        46.70487        -1.69264
C         28.19952        48.93702        -1.34291
C         26.95925        48.18121        -1.68053
C         28.10498        50.31796        -1.05495
C         26.84293        51.01093        -1.01835
C         28.02603        53.12197        -0.46529
C         26.80570        52.40066        -0.73934
C         27.96817        54.49531        -0.14593
C         26.73583        55.18296        -0.07393
C         26.67099        56.53296         0.32543
C         29.19072        12.36701        -0.38379
C         30.44543        14.48971        -0.18355
C         29.22357        13.76030        -0.14313
C         30.48803        15.87299         0.04264
C         29.25355        16.56894         0.36779
C         30.48237        18.72081         0.18319
C         29.26944        17.96861         0.57056
C         30.50023        20.21492         0.34664
C         29.35269        20.90478         0.96717
C         30.55750        23.03727         0.76468
C         29.36532        22.28538         1.12581
C         30.54521        24.43359         0.74958
C         29.34995        25.15420         1.14805
C         30.63193        27.30868         0.89721
C         29.36420        26.59103         1.17067
C         30.66255        28.80608         1.01265
C         29.48027        29.54745         1.63849
C         30.62293        31.78799         0.97829
C         29.50287        31.07959         1.71273
C         30.81859        33.25232         1.21382
C         29.52118        34.02853         1.36325
C         30.73970        36.08602         0.72293
C         29.50252        35.43877         0.98285
C         30.78037        37.57234         0.82279
C         29.51822        38.31150         0.51624
C         30.68484        40.58629         0.56312
C         29.44207        39.78303         0.44755
C         30.64688        41.97957         0.09517
C         29.44595        42.51383        -0.55293
C         30.62746        44.68073        -0.80531
C         29.37980        43.97100        -0.70268
C         30.53604        46.01694        -1.28695
C         29.37458        46.78295        -1.19202
C         30.62431        48.93893        -0.76040
C         29.42503        48.22680        -1.19093
C         30.52002        50.32415        -0.57150
C         29.30487        51.03567        -0.71339
C         29.25058        52.42058        -0.45425
C         31.71697        16.59135        -0.01042
C         32.95716        18.73564        -0.00911
C         31.77085        17.99753         0.07864
C         32.99765        20.16865         0.08840
C         31.79551        20.89946         0.35185
C         32.98629        23.00044         0.20880
C         31.79304        22.30598         0.47140
C         32.88982        24.41904        -0.16524
C         31.68112        25.18563         0.22499
C         32.74490        27.27414        -0.65405
C         31.69765        26.55737         0.18317
C         32.81313        28.81020        -0.45126
C         31.65959        29.55486         0.16579
C         32.99083        31.74670        -0.04383
C         31.72276        31.05234         0.29030
C         33.01990        33.17323         0.01992
C         31.95865        33.93208         0.56791
C         33.05663        36.08855        -0.11934
C         31.92906        35.35865         0.52380
C         33.09587        37.58096        -0.18283
C         32.05211        38.32773         0.58052
C         33.31019        40.49370         0.14055
C         32.06314        39.83167         0.58099
C         33.54043        41.81022         0.42314
C         31.68095        42.86799         0.33961
C         33.18563        44.76825        -0.25611
C         31.85190        44.12360        -0.32898
C         33.30937        46.18970        -0.19822
C         32.32379        47.08467        -0.70766
C         31.86401        48.32867        -0.30457
C         34.20900        20.87866        -0.02743
C         35.43347        23.03183        -0.12083
C         34.23620        22.30411         0.00744
C         35.43063        24.51474         0.10456
C         34.16587        25.14041        -0.45765
C         35.40744        27.40067        -0.56164
C         34.13291        26.62758        -0.63866
C         35.35341        28.88047        -0.44697
C         34.11864        29.54534        -0.47385
C         35.35416        31.64688        -0.87043
C         34.11447        30.97923        -0.40316
C         35.37668        33.13387        -0.99621
C         34.28216        33.88141        -0.31812
C         35.50901        36.12649        -0.87121
C         34.34976        35.37647        -0.30711
C         35.55409        37.48507        -0.88526
C         34.33259        38.28844        -0.66012
C         35.73669        40.45317        -0.64202
C         34.39972        39.77939        -0.57409
C         35.76361        41.89441        -0.52391
C         34.61540        42.60886        -0.13010
C         34.41325        44.02386        -0.18942
C         36.68035        25.26081        -0.26468
C         37.86946        27.40838        -0.24544
C         36.69106        26.66849        -0.32064
C         37.85144        28.88001         0.05842
C         36.60389        29.59336        -0.41440
C         37.88431        31.70150        -0.73385
C         36.64446        30.94929        -0.70790
C         37.92591        33.08283        -0.93282
C         36.68726        33.84747        -1.18756
C         38.03015        36.05263        -1.03662
C         36.73050        35.34797        -1.20927
C         38.04405        37.42341        -1.07364
C         36.78880        38.22615        -1.37292
C         36.84552        39.68098        -0.91800
C         39.11405        29.60935        -0.31333
C         40.37304        31.69952        -0.67676
C         39.12949        30.95746        -0.56753
C         40.39019        33.05374        -0.80140
C         39.16645        33.82573        -0.89623
C         39.20303        35.21884        -0.92389
O         24.36892        38.99257         1.90601
O         34.78281        34.61377         0.87561
O         35.05274        32.33875        -2.16201
O         17.42223        17.59381        -1.61682
O         18.86901        48.18681        -2.54287
O         26.32265        46.88012         0.86028
O         31.71712        29.33041        -1.27306
O         21.57710        30.46737         2.65019
O         21.90619        18.36597        -0.29336
O         21.16398        20.46556         3.28947
O         25.44598        19.76782         0.31023
O         30.42370        33.73805         2.50907
O         17.72950        29.37958         1.85890
O         20.72248        28.74226        -0.50196
O         15.02512        30.95396         1.74273
O         34.01970        39.13672        -1.84479
O         20.66038         7.48065        -0.52371
O          8.06361        33.13253         0.80483
O         12.26511        34.37039        -1.02782
O         24.31097        21.31532         3.57687
O         12.33849        32.19733        -2.18197
O         23.05961        11.43113        -1.69292
O         15.67219        24.44109        -1.49794
O         31.66408        46.57703        -1.85937
O         26.56067        25.11023         3.40556
O         27.91065        20.23878         2.84530
O         34.84448        26.98374        -1.87609
O         16.56618        46.97325         1.13638
O         24.59141        16.95763         2.69260
O         28.84932        41.80102        -1.69038
O         11.05845        35.11450         2.26298
O         22.14471        52.37994        -3.22134
O         14.08463        28.28043        -2.21255
O         29.00175        37.75385        -0.76157
O         16.32792        41.86339        -0.57548
O         13.63998        33.13701         2.21661
O         16.33675        35.88987        -0.29542
O         20.53782        54.15694        -2.57761
O         36.67500        34.59137        -2.46210
O         32.67098        42.50941         1.26760
O         30.20654        19.59458        -0.97581
O         27.10024        30.34953         3.11007
O         18.59157        22.65659        -0.73428
O         33.46180        24.51052        -1.54881
O         22.68380        37.90954        -0.99458
O         31.28948        27.99595         2.06383
O         17.71149        40.27571         2.67276
O         25.20567        13.80205         2.04767
O         19.86157        17.95183         2.67670
O         32.56327        36.79392        -1.30810
O         17.36947        26.98194         1.84736
O          9.87915        35.43072        -1.24680
O         31.68574        37.88782         1.93226
O         23.03625        28.05873         3.18671
O         19.04340        31.33051        -0.86546
O         20.11735        10.66834         0.75852
O         11.60841        28.30687        -2.85696
O         22.39478        25.89357         0.14040
O         21.41121        35.66224        -0.88440
O         14.79754        20.74808         2.42258
O         19.97752        38.91012         2.40254
O         29.87907        30.27487         2.85291
O         31.45062        40.35767         1.78116
O         26.06815        48.60307        -2.77795
O         30.55174        31.58742        -0.46676
O         17.27973        14.15778         1.08349
H         17.85868        14.19502         1.87430
O         37.79111        28.95570         1.54518
H         37.95484        29.88975         1.79753
O         17.90631        20.00509         3.17852
H         18.64224        19.42202         3.48428
O          9.03480        24.71235        -2.24112
H          9.56681        24.65417        -3.06102
O         23.34875        51.67739        -3.53840
H         23.99456        52.40086        -3.72930
O         26.05036        46.06176        -2.35011
H         25.54839        46.75796        -2.84741
O         36.66735        38.31112        -2.82761
H         35.75512        38.63641        -3.01179
O         18.66389        18.31377        -1.46093
H         18.45843        19.20512        -1.83743
O         32.25690        27.06033        -1.99934
H         33.01790        27.18170        -2.61137
O         26.20147        22.72920         3.95362
H         26.73373        23.50791         4.24411
O         26.60088         5.40274        -1.73314
H         26.64465         5.75094        -2.64696
O         12.40771        20.00969         2.11409
H         13.13546        20.04468         2.78280
O         10.55132        37.52781         2.94378
H         10.81628        36.65005         3.31180
O         19.71214        33.88560        -1.47595
H         19.57736        32.95628        -1.76902
O         14.48158        44.38438         2.47325
H         13.88405        43.73905         2.92669
O         26.05820        44.43680         1.68430
H         26.54950        45.23928         1.97909
O         18.62525        35.54482         2.62002
H         19.29391        34.81551         2.60113
O         22.69374        13.97862         2.63151
H         23.51584        14.19553         3.12841
O         20.46509        33.44916         2.09660
H         20.99470        32.84161         2.65902
O         16.46415        47.35882        -2.46857
H         17.27215        47.37839        -3.03584
O         25.17783        16.02970        -0.84085
H         25.01170        16.97759        -1.03484
O         16.88064        54.99066        -0.63376
H         16.94989        54.76863         0.31698
O         13.08852        42.04909         2.90467
H         12.25216        41.61160         3.17579
O         35.26816        24.72514         1.57541
H         36.07911        24.39035         2.01487
O         17.75816        14.93922        -2.48048
H         17.76946        15.92439        -2.37326
H          5.41302        31.27879        -1.55888
H          5.16137        33.56400        -0.73346
H          7.99725        27.28708        -1.71110
H          6.80120        29.21301        -1.81195
H          6.22327        35.79942         0.06901
H          7.46417        38.07496         0.42477
H          9.98166        22.76923        -0.65094
H          9.14839        25.46778        -0.33872
H          8.73600        40.14080         0.49875
H          9.96651        42.17560         0.29274
H         12.37435        18.50968        -0.29958
H         11.01017        20.65387        -0.06722
H         11.18022        44.27158         0.00804
H         12.33047        46.35006        -0.39739
H         14.89566        14.50637        -1.34224
H         13.61865        16.52351        -0.73206
H         13.47064        48.58171        -0.56641
H         14.79310        50.74226        -0.63895
H         17.35406        10.32695        -2.24943
H         16.27905        12.46819        -2.14765
H         15.99402        52.83244        -0.93436
H         17.94665        54.80869        -2.37924
H         20.02052         6.20970        -3.56711
H         18.58215         8.45371        -3.00139
H         18.29676        56.85835         0.06083
H         19.46644        58.84836         0.89743
H         23.13883         2.80723        -3.71585
H         21.04401         4.13001        -3.71448
H         22.73152        62.11051         2.23722
H         20.62703        60.89324         1.69742
H         25.17178         3.68173        -2.53137
H         25.42998         5.52938        -0.05254
H         26.28243        59.05481         1.19967
H         24.94577        61.03158         1.89111
H         27.64395         7.57323        -1.01400
H         28.89025         9.70313        -0.78656
H         28.89926        55.03296         0.08672
H         27.59980        57.06820         0.57271
H         30.12871        11.84147        -0.61688
H         31.37729        13.95292        -0.41649
H         31.41146        50.88245        -0.24873
H         30.17713        52.95745        -0.20302
H         32.64951        16.02939        -0.17169
H         33.90759        18.19968        -0.15191
H         34.22292        46.60394         0.25646
H         32.43096        48.88561         0.45646
H         35.14642        20.32838        -0.19261
H         36.38530        22.49724        -0.25800
H         36.67504        42.43070        -0.82880
H         35.32050        44.62791        -0.36038
H         37.64366        24.73475        -0.16521
H         38.82831        26.87783        -0.13659
H         39.00030        37.96349        -0.98972
H         37.81966        40.18458        -1.02687
H         40.06751        29.07030        -0.19941
H         41.31658        31.13860        -0.60640
H         41.34859        33.59248        -0.83584
H         40.18407        35.71629        -0.87109
