         410
 CSIRO Nanostructure Databank - Neutral Graphene Oxide Data Set
C         28.94491        27.77282        -3.64620
C         28.82264        29.15121        -3.32468
C         27.70515        29.90738        -3.75750
C         28.60697        31.92234        -2.71899
C         27.60876        31.25554        -3.46893
C         28.52845        33.35112        -2.46406
C         27.39993        34.14456        -2.94984
C         28.66761        36.23355        -2.51770
C         27.40845        35.49144        -2.90238
C         28.48693        37.67587        -2.05647
C         27.30740        38.41310        -2.24980
C         28.41784        40.46430        -1.51915
C         27.27542        39.77518        -1.98030
C         28.39097        41.89731        -1.27301
C         27.24114        42.67575        -1.57639
C         28.30979        44.68737        -0.73063
C         27.19989        44.03000        -1.31997
C         28.26704        46.07767        -0.41896
C         31.11682        27.67783        -2.53322
C         30.06485        27.06667        -3.27054
C         30.98916        29.04009        -2.13116
C         29.84590        29.78429        -2.55916
C         30.73019        31.77184        -1.42585
C         29.72820        31.17078        -2.24631
C         30.56851        33.19111        -1.07154
C         29.52432        33.97484        -1.74032
C         30.79222        36.09300        -1.18928
C         29.43728        35.44768        -1.41070
C         30.87747        37.54669        -1.42343
C         29.63045        38.33494        -1.57603
C         30.78489        40.39483        -0.75194
C         29.61694        39.72747        -1.29502
C         30.72115        41.78783        -0.42184
C         29.52684        42.53935        -0.71860
C         30.60232        44.60032         0.16545
C         29.48485        43.94101        -0.43647
C         30.51249        45.96912         0.53137
C         29.32406        46.69170         0.20716
C         33.69243        24.94901        -2.42253
C         32.52437        25.63433        -2.68489
C         33.34798        27.57730        -1.44760
C         32.32189        26.95539        -2.21362
C         33.19143        28.92532        -0.97814
C         32.00329        29.66747        -1.33443
C         32.85010        31.70034        -0.11115
C         31.83268        31.03382        -0.96125
C         32.97546        33.16817        -0.15660
C         31.76544        33.93443        -0.47267
C         33.10958        36.04122        -0.29992
C         31.87282        35.39248        -0.70850
C         33.17001        37.44670        -0.26944
C         32.10100        38.25861        -0.87211
C         33.09016        40.30627         0.11284
C         31.97644        39.67927        -0.49504
C         33.02711        41.69643         0.45143
C         31.83298        42.43355         0.17485
C         32.88007        44.49887         1.06296
C         31.78735        43.85086         0.47082
C         32.81836        45.86755         1.44165
C         31.59724        46.58756         1.25475
C         32.42373        48.32500         2.73181
C         31.43982        47.84661         1.88814
C         36.14988        23.53430        -1.94738
C         35.91995        24.78245        -1.33479
C         34.72549        25.53049        -1.65224
C         35.57248        27.43695        -0.35085
C         34.54609        26.85151        -1.14442
C         35.44498        28.80418         0.06849
C         34.24981        29.52224        -0.25188
C         35.34035        31.65029         0.53713
C         34.10930        30.90317         0.24253
C         35.34294        33.06222         0.56359
C         34.15875        33.82138         0.19483
C         35.40392        35.94155         0.59633
C         34.22119        35.27025         0.17460
C         35.44359        37.37021         0.65610
C         34.29787        38.12187         0.26838
C         35.43646        40.21073         0.86816
C         34.27643        39.54744         0.40148
C         35.38259        41.64029         1.11371
C         34.16961        42.33917         1.00207
C         35.30425        44.54028         1.64326
C         34.03424        43.71202         1.62249
C         35.28694        45.86867         2.02213
C         33.93620        46.47243         2.12943
C         35.66018        48.76035         3.24274
C         33.65196        47.63742         2.83802
C         35.77312        50.11240         3.58141
C         37.97084        23.10286        -0.40855
C         37.15972        22.70882        -1.48555
C         37.93532        24.44212         0.09838
C         36.86208        25.28409        -0.38031
C         37.63952        27.17883         0.97699
C         36.70762        26.64791         0.05860
C         37.56076        28.61322         1.50684
C         36.51379        29.45156         0.75908
C         37.70220        31.59154         1.14358
C         36.50982        30.87695         0.84651
C         37.74280        32.99781         1.10363
C         36.54822        33.77125         0.88615
C         37.77687        35.90162         1.32998
C         36.58093        35.19276         0.94145
C         37.80787        37.29790         1.42050
C         36.62914        38.06084         1.07494
C         37.77516        40.23609         1.72647
C         36.61990        39.47449         1.12025
C         37.80860        41.68556         1.33924
C         36.59038        42.36864         1.33558
C         37.77649        44.53077         1.74730
C         36.56009        43.86639         1.16840
C         37.77821        46.00782         1.83517
C         36.55321        46.65740         2.12089
C         37.88811        48.78033         2.30514
C         36.66001        48.05278         2.52098
C         37.96876        50.18699         2.56401
C         36.88833        50.83919         3.19010
C         40.39447        20.20840         2.65849
C         39.47407        20.61093         1.72236
C         40.28902        22.94639         1.68886
C         39.46336        21.94527         1.19769
C         40.19609        24.38172         1.39478
C         38.88808        24.99140         1.03110
C         40.42006        27.35363         1.79228
C         38.58969        26.28345         1.50487
C         40.26760        28.68841         1.40730
C         38.94303        29.37065         1.60829
C         40.18559        31.55193         1.02992
C         38.94857        30.85560         1.42812
C         40.21166        32.95184         1.04795
C         38.99390        33.66935         1.23833
C         40.36562        35.80424         1.45289
C         39.00556        35.09666         1.53850
C         40.38349        37.29420         1.41587
C         39.09476        38.02761         1.66173
C         40.26408        40.21305         0.81657
C         39.13739        39.53571         1.57143
C         40.20764        41.66311         0.70488
C         39.04157        42.34989         1.17848
C         40.25260        44.58516         1.27745
C         39.08269        43.77782         1.53780
C         40.26091        45.96585         1.49524
C         39.03971        46.67515         1.80719
C         40.30392        48.80099         1.69251
C         39.08071        48.09403         1.91156
C         40.33093        50.22730         1.80185
C         39.17278        50.92297         2.23358
C         40.35417        53.04707         2.01555
C         39.21619        52.34421         2.33053
C         42.62730        20.61219         3.61501
C         41.44403        21.09382         3.03896
C         42.71577        23.24244         2.50772
C         41.35145        22.49492         2.61959
C         42.67554        24.28044         1.40511
C         41.39179        25.10635         1.47306
C         42.68434        27.25357         0.99970
C         41.50991        26.55317         1.39325
C         42.66144        28.65769         0.84034
C         41.41540        29.34579         0.92040
C         42.62315        31.51348         0.25582
C         41.32753        30.77259         0.56946
C         42.63039        32.96779         0.43564
C         41.45869        33.66880         0.79368
C         42.64479        35.79737         0.41087
C         41.50602        35.07835         0.89992
C         42.63942        37.20561         0.25615
C         41.52818        38.02303         0.78876
C         42.34886        39.85755        -0.58524
C         41.33810        39.42434         0.32510
C         42.37358        42.03779        -0.49599
C         41.30011        42.48868         0.29135
C         42.64492        44.58383         0.70825
C         41.29508        43.99832         0.38652
C         42.71532        45.95340         1.00104
C         41.49601        46.68806         1.27833
C         42.71936        48.81603         1.04768
C         41.50709        48.09580         1.36009
C         42.70216        50.27003         1.03474
C         41.52664        50.95136         1.47742
C         42.70132        53.09752         1.24866
C         41.53142        52.37196         1.58154
C         43.84941        21.29260         3.48069
C         45.21292        23.11180         2.41619
C         43.94633        22.50638         2.79221
C         45.16127        24.55137         2.06534
C         43.96800        25.09341         1.33971
C         45.22576        27.33967         1.14847
C         43.97987        26.54146         0.97120
C         45.16932        28.76203         0.87380
C         43.91824        29.39747         0.65505
C         45.09926        31.53005         0.29723
C         43.89539        30.78902         0.39516
C         45.06814        32.95172         0.04319
C         43.84798        33.66246         0.19488
C         44.98514        35.76434        -0.41234
C         43.82754        35.08062         0.06693
C         44.92682        37.16235        -0.64245
C         43.75440        37.85998        -0.29963
C         44.74019        39.88049        -1.30593
C         43.61226        39.23341        -0.73110
C         44.79711        42.03015        -1.05934
C         43.68054        42.58491        -0.40145
C         45.20346        44.51567         0.31871
C         43.82184        43.77617         0.45854
C         45.13428        45.98704         0.38704
C         43.95554        46.67127         0.80873
C         45.04888        48.84832         0.20770
C         43.90002        48.10776         0.77745
C         45.00109        50.34119         0.04936
C         43.83015        51.03118         0.63890
C         43.82036        52.43689         0.77800
C         47.67466        23.24838         2.31324
C         46.46023        22.54151         2.58579
C         47.71336        24.58794         1.98139
C         46.44091        25.33531         1.97509
C         47.67825        27.49578         1.66956
C         46.41076        26.71606         1.43784
C         47.66922        28.84782         0.99938
C         46.39294        29.50696         0.82329
C         47.56850        31.67668         0.42823
C         46.33942        30.87942         0.49617
C         47.53104        33.00023        -0.22249
C         46.25251        33.66181        -0.31315
C         47.35615        35.69860        -1.22644
C         46.18041        35.02895        -0.65567
C         47.36162        37.18756        -1.42858
C         46.07212        37.90977        -1.20344
C         47.27837        40.15213        -1.27217
C         46.06753        39.39572        -1.17483
C         47.30885        41.61448        -1.24911
C         46.15546        42.45686        -0.95116
C         47.10077        44.74159        -1.14235
C         46.20823        43.87022        -0.54708
C         47.35112        46.05232        -0.65452
C         46.30141        46.70239        -0.01532
C         47.56488        48.93067        -0.37793
C         46.38164        48.17076         0.15885
C         47.40251        50.39268        -0.58957
C         46.27309        51.04890        -0.26524
C         50.13716        24.55907         1.26468
C         48.93085        25.30444         1.58400
C         50.17697        27.41790         1.18215
C         48.91988        26.67663         1.40271
C         50.13302        28.79988         0.65015
C         48.86843        29.48359         0.68823
C         50.06013        31.55174        -0.17265
C         48.89252        30.93881         0.47187
C         49.99220        32.95756        -0.52784
C         48.71626        33.64024        -0.53535
C         49.89728        35.80560        -1.12621
C         48.67716        34.98591        -1.13821
C         49.84081        37.23494        -1.19111
C         48.60724        37.97097        -1.29714
C         49.81270        40.08182        -1.08127
C         48.55603        39.39620        -1.24281
C         49.85401        41.51325        -1.00928
C         48.63634        42.23343        -1.27225
C         49.91090        44.36172        -1.15066
C         48.81466        43.60054        -1.59024
C         49.93347        45.88409        -1.07028
C         48.68517        46.69594        -0.78996
C         49.77199        48.74688        -1.59475
C         48.68898        48.17004        -0.99618
C         51.30336        25.15991         0.91816
C         52.62879        27.31479         0.39090
C         51.46198        26.61953         0.99123
C         52.54271        28.68909         0.03286
C         51.27391        29.41917         0.11552
C         52.35070        31.40631        -1.08072
C         51.19717        30.78599        -0.37556
C         52.33478        32.90513        -1.44422
C         51.12513        33.64910        -0.93746
C         52.35174        35.78754        -1.12731
C         51.11934        35.09167        -1.06770
C         52.32226        37.21780        -1.13369
C         51.07721        37.94370        -1.14073
C         52.29665        40.08650        -1.06957
C         51.05542        39.36705        -1.07365
C         52.35261        41.49218        -0.81001
C         51.08147        42.22078        -0.73381
C         52.72552        44.96028        -0.99033
C         50.96672        43.64110        -0.58548
C         52.35126        45.95997        -1.89939
C         51.06246        46.63923        -1.70497
C         50.92588        47.97631        -1.97654
C         55.01915        27.29956        -0.07507
C         53.86162        26.63764         0.30045
C         54.97019        28.67228        -0.41869
C         53.72104        29.34614        -0.39655
C         54.92147        31.48179        -1.07784
C         53.67225        30.70718        -0.96816
C         54.87169        32.93120        -1.13760
C         53.63665        33.63463        -1.16417
C         54.83450        35.77062        -1.11706
C         53.61323        35.05594        -1.13893
C         54.87236        37.27423        -1.04371
C         53.52936        37.94119        -1.19193
C         54.72130        40.03074        -1.64500
C         53.51589        39.35329        -1.26998
C         54.77270        41.43048        -1.48673
C         53.67226        42.04742        -0.83398
C         54.80304        44.44501        -2.18217
C         53.90744        44.24644        -1.12481
C         54.48941        45.52665        -3.04534
C         53.30829        46.25948        -2.90361
C         56.15390        29.39021        -0.77853
C         56.12663        30.75816        -1.02513
C         56.07240        33.68410        -1.08055
C         56.04817        35.07035        -1.07931
C         55.86535        37.90832        -1.99247
C         55.80462        39.24013        -2.20820
C         55.91370        42.21471        -1.96121
C         55.91689        43.52219        -2.35158
O         30.62686        33.51711         0.37641
O         39.82319        35.35925         2.73322
O         46.49569        37.50388        -2.57212
O         51.92414        44.44761         0.04912
O         47.80788        44.29331        -2.27165
O         34.54998        48.12861         3.78934
O         41.73685        31.05268        -0.82499
O         44.53195        41.05643        -2.03218
O         45.62390        25.33364         3.22067
O         39.40320        26.76243         2.54613
O         44.20482        25.49094        -0.05778
O         41.80362        23.47243         3.59967
O         52.83052        30.63704        -2.23747
O         47.91669        35.01686        -2.40226
O         39.35553        38.84920         2.85335
O         38.67038        22.03522         0.07515
O         49.61895        46.31141         0.29600
O         48.38588        31.67350         1.64860
O         51.12774        27.21604         2.28868
O         33.02364        31.10165         1.21445
O         41.45625        37.83438         2.24998
O         54.04369        43.22883        -0.16694
O         38.97419        30.22326         2.80612
O         29.44213        36.28695        -3.68522
O         44.65412        49.44818        -1.08383
O         42.10948        40.97776        -1.38124
O         47.40644        48.62760         1.08219
O         31.95294        37.98303        -2.31165
O         38.42977        43.93325         2.87183
O         44.83043        43.76112         1.50152
O         42.62339        23.49674         0.17968
H         42.99122        24.07066        -0.53333
O         28.68130        35.57248        -0.17626
H         29.08962        34.94450         0.46530
O         40.95638        44.43991        -0.99439
H         40.91366        45.42062        -0.98596
O         47.71338        27.77699         3.11046
H         46.88256        28.23928         3.34965
O         36.63629        44.12991        -0.27558
H         35.85192        43.71928        -0.69822
O         55.34748        37.58542         0.31568
H         55.37969        38.56300         0.39459
O         33.69109        43.44109         3.02870
H         33.54826        44.30689         3.46766
O         52.18453        32.98884        -2.89809
H         52.54018        32.13926        -3.25761
O         37.06104        28.49911         2.85824
H         37.45110        29.24801         3.37044
O         37.42647        40.31707         3.14181
H         37.98764        39.65276         3.61384
H         28.14344        27.28059        -4.21524
H         26.91902        29.41137        -4.34464
H         26.73846        31.81075        -3.84066
H         26.51914        33.62470        -3.35191
H         26.56628        36.04882        -3.33910
H         26.39845        37.92416        -2.62613
H         26.33333        40.31496        -2.14382
H         26.36039        42.20104        -2.02791
H         26.29777        44.61087        -1.56029
H         27.36349        46.65196        -0.66989
H         30.13334        26.00822        -3.55196
H         29.25322        47.76164         0.44468
H         33.79172        23.92660        -2.80773
H         31.75054        25.13180        -3.27828
H         32.27543        49.24757         3.30754
H         30.50295        48.40906         1.78518
H         35.50844        23.17715        -2.76165
H         34.96579        50.58659         4.15370
H         37.28642        21.69829        -1.89453
H         36.93979        51.90586         3.43986
H         40.40098        19.17211         3.02464
H         38.73350        19.90213         1.32885
H         40.36523        54.14403         2.08826
H         38.32503        52.90278         2.64456
H         42.63807        19.58616         4.01145
H         42.70244        54.19258         1.34337
H         44.76644        20.78499         3.81133
H         44.70679        53.02038         0.49573
H         48.61007        22.67437         2.37511
H         46.54185        21.49146         2.90130
H         48.28428        50.96609        -0.91315
H         46.25023        52.14439        -0.35951
H         50.07398        23.46257         1.21967
H         49.81636        49.83573        -1.74021
H         52.14053        24.54806         0.55206
H         51.77544        48.51911        -2.41597
H         55.98028        26.76730        -0.10087
H         53.91705        25.57691         0.58144
H         55.16304        45.75787        -3.88255
H         53.08854        47.05491        -3.62984
H         57.11355        28.85469        -0.78723
H         57.08368        31.27271        -1.18653
H         57.04293        33.17387        -1.03414
H         56.99392        35.62694        -1.02446
H         56.68204        37.30734        -2.41774
H         56.56669        39.73723        -2.82499
H         56.82403        41.63868        -2.18789
H         56.81207        43.90348        -2.86786
