         260
 CSIRO Nanostructure Databank - Neutral Graphene Oxide Data Set
C         30.32704        32.31265        -0.29533
C         30.23717        33.26953         0.49053
C         30.43730        36.14901         0.67377
C         30.18987        37.19194        -0.03163
C         30.57387        39.79372        -1.91825
C         30.88107        40.72724        -2.70894
C         32.76789        29.68920        -1.31532
C         31.68845        30.31344        -1.28323
C         32.57502        31.69962         0.59399
C         31.44116        31.72880        -1.02410
C         32.59499        33.06883         1.25169
C         31.30052        33.88534         1.29785
C         32.60004        36.09301         1.56709
C         31.37443        35.35840         1.29733
C         32.65307        37.49113         1.44078
C         30.87074        38.38307         0.21033
C         32.30775        40.33221        -0.49089
C         31.17943        39.46139        -0.68523
C         32.79844        41.27641        -1.41926
C         31.99335        41.58068        -2.58241
C         33.45284        43.38585        -2.95111
C         32.46572        42.71774        -3.32171
C         35.74842        29.08269        -2.17078
C         35.18036        29.08304        -0.73855
C         33.97817        29.95648        -0.55866
C         35.08118        31.49685         1.04353
C         33.90852        31.06661         0.23649
C         35.05486        32.83418         1.72049
C         33.91298        33.80435         1.39295
C         35.11623        36.08988         2.02407
C         33.90175        35.31189         1.60317
C         35.09276        37.53308         1.82058
C         33.89578        38.20019         1.30039
C         35.26153        40.13678         0.55523
C         34.00457        39.51156         0.86391
C         35.37192        41.25422        -0.46035
C         34.24437        41.79354        -1.35334
C         35.73647        43.78802        -2.01432
C         34.55057        43.10971        -2.08514
C         36.20307        44.94297        -2.71941
C         37.96728        28.20754        -1.73203
C         36.85245        28.69521        -2.55801
C         37.74618        28.74214        -0.31532
C         36.45699        29.49728         0.08881
C         37.71391        31.65800         1.00414
C         36.42500        30.78680         0.88706
C         37.59354        32.94583         1.78033
C         36.37083        33.33871         2.18596
C         37.63245        36.12851         2.14130
C         36.32094        35.56108         2.44037
C         37.65409        37.47819         1.86455
C         36.41206        38.28655         1.81542
C         37.64727        40.33646         1.14699
C         36.41553        39.55259         1.04107
C         37.75226        41.71727         0.57111
C         36.71153        42.00703        -0.46988
C         38.12906        44.17020        -0.98657
C         36.93086        43.24036        -1.28046
C         38.56688        44.89392        -2.30261
C         37.27557        45.56863        -2.77425
C         41.04843        26.96361        -3.59954
C         39.93006        27.49810        -3.43990
C         40.50976        27.93628        -1.12843
C         39.33305        27.71565        -2.11423
C         40.25091        28.73436         0.08296
C         38.97152        28.93235         0.49067
C         40.14933        31.53152         1.64829
C         38.92785        30.93215         1.55561
C         40.19292        33.00354         1.92162
C         38.84214        33.75293         2.24991
C         40.19552        35.91785         1.68452
C         38.81717        35.20911         1.65735
C         40.18981        37.41379         1.52374
C         38.91164        38.19102         1.55905
C         39.89559        40.51628         1.93542
C         38.85539        39.68167         1.61424
C         40.16474        41.77195         1.25048
C         39.10573        42.32870         0.47067
C         40.56383        44.13657        -0.22438
C         39.31904        43.46952        -0.32528
C         40.82011        45.36850        -1.03166
C         39.76868        45.78919        -2.04260
C         40.71677        48.04186        -1.89586
C         39.85053        47.24130        -2.25564
C         43.35972        26.17971        -2.62189
C         42.18494        26.93170        -2.72376
C         42.82366        27.55298        -0.37025
C         41.92199        27.60401        -1.47893
C         42.71770        28.60836         0.71067
C         41.39649        29.29186         0.88992
C         42.62367        31.57649         0.83454
C         41.37135        30.80059         1.12741
C         42.79686        33.02769         1.30560
C         41.47150        33.76063         1.66724
C         42.70896        35.97111         1.26643
C         41.37325        35.24955         1.48707
C         42.55259        37.42656         0.76240
C         41.51017        38.10462         1.58743
C         42.84843        40.21288         1.63661
C         41.74994        39.36613         2.04290
C         42.69954        41.71909         1.94980
C         41.45709        42.38147         1.25398
C         42.61902        44.63475         1.18603
C         41.57418        43.65511         0.64594
C         42.72119        45.95573         0.42678
C         41.86565        46.32317        -0.55757
C         42.91663        48.51418        -0.54957
C         42.10669        47.67719        -1.45600
C         44.13988        26.02712        -1.63205
C         45.57372        27.25482         1.08779
C         43.89826        26.63766        -0.38106
C         45.34455        28.75500         1.01939
C         43.99554        29.41302         0.92641
C         45.01596        31.55731         0.10306
C         43.92697        30.86862         0.55776
C         44.92546        33.02897        -0.17118
C         43.68733        33.75072         0.29844
C         44.94046        36.01332        -0.00812
C         43.68343        35.25231         0.33225
C         45.00885        37.43962         0.42206
C         43.88575        38.14266         0.77826
C         45.13856        40.34345         0.71280
C         43.92614        39.57481         1.07199
C         45.20760        41.79787         1.03288
C         44.00959        42.49788         1.62339
C         45.24645        44.64673         0.74831
C         43.99984        43.97201         1.35232
C         45.18258        46.17208         1.07161
C         43.85606        46.84187         0.89718
C         43.69194        48.19253         0.35129
C         47.85227        27.78338         1.29916
C         46.87541        26.94138         1.37751
C         47.93295        28.97856         0.60452
C         46.51666        29.49427         0.37720
C         47.45064        31.62185        -0.87773
C         46.27676        30.84137        -0.25876
C         47.34481        33.14374        -0.75909
C         46.17789        33.81025        -0.44837
C         47.36895        35.99456        -0.48980
C         46.19674        35.27316        -0.32682
C         47.44526        37.41931        -0.25532
C         46.32796        38.09526         0.41546
C         47.55773        40.31887         0.00666
C         46.41424        39.58965         0.57022
C         47.68636        41.74802         0.34892
C         46.56560        42.47441         1.06566
C         47.91965        44.67889         0.77489
C         46.57387        44.00049         1.28399
C         47.59573        46.10927         0.67216
C         46.53207        46.70532         0.86808
C         50.39904        29.49325         0.32856
C         49.04147        29.76642         0.23010
C         49.77207        32.16046         0.12313
C         48.79737        31.14921        -0.28742
C         50.23504        33.31242         0.65908
C         48.48487        33.90073        -1.35582
C         49.86682        36.04353        -0.39772
C         48.62169        35.40065        -1.09684
C         49.78181        37.43211        -1.09965
C         48.56558        38.15041        -0.59872
C         49.72075        40.26243        -1.17028
C         48.62059        39.59723        -0.56508
C         49.87013        41.72907        -1.09738
C         48.78541        42.51816        -0.30889
C         50.21678        44.51051        -0.62608
C         49.07893        43.93714         0.17019
C         51.63148        29.69597         0.20540
C         52.78943        31.72280        -0.22047
C         52.85814        30.30596         0.01319
C         52.40439        32.88385        -0.30489
C         51.45613        33.94706         0.04457
C         52.10073        36.19176        -1.39572
C         51.28694        35.33060        -0.53467
C         52.03356        37.38306        -1.72745
C         51.04822        38.32460        -1.10254
C         52.14313        40.13005         0.20852
C         51.66900        38.75774         0.27466
C         52.02200        41.26676        -0.27000
C         51.26785        42.28170        -0.92191
C         51.16959        43.64390        -0.66723
O         43.85796        35.80186        -0.98570
O         40.98844        45.14508        -2.50707
O         44.91577        41.34270        -0.33761
O         41.12122        33.32292         3.02793
O         32.87282        40.33229         0.78571
O         46.11928        29.60779        -1.03197
O         44.60968        26.33394         0.77247
O         41.63214        31.41857        -0.21871
O         35.59422        38.27013         3.01623
O         47.60916        41.85700         1.84210
O         38.82506        29.56049         1.73211
O         48.80667        42.46905        -1.75395
O         31.74955        33.15559         2.45702
O         49.55329        37.09625        -2.50114
O         39.47631        37.75228         0.23231
O         44.38445        46.56037         2.20716
O         39.73092        26.68930        -1.18378
O         49.01974        44.20947         1.58273
O         50.72634        39.56723        -1.79402
O         46.71192        38.71159         1.70431
O         51.89454        35.10469         0.77702
O         37.42888        27.35586        -0.67428
O         44.69558        29.27876         2.21910
O         41.91880        28.38910         1.90663
O         37.35016        41.94386        -1.78648
O         36.26787        34.35327         3.12642
O         35.13185        40.71876        -1.80515
O         49.98438        31.59768        -1.11762
O         31.52323        38.35314         1.49084
O         43.76238        33.26603        -1.05453
O         40.80751        39.99352         2.84997
O         36.32067        29.48865         1.53248
O         37.30337        41.58968         1.93909
O         34.67294        31.64361         2.46073
O         42.04017        37.34774        -0.63010
O         44.27650        43.45842         2.67706
O         49.15136        33.41894        -2.27216
O         51.67713        38.00325         1.23299
O         48.66883        35.93040        -2.47926
O         34.19250        34.67435         0.26065
O         43.37974        36.00332         2.54571
H         42.74029        36.25866         3.24299
O         49.60979        36.19667         0.98665
H         50.33868        36.75826         1.36693
O         38.55308        35.02856         0.24268
H         38.73060        35.89364        -0.20336
O         46.60013        44.23124         2.68754
H         47.44660        43.87185         3.03412
O         37.71602        45.20244        -0.07248
H         37.59408        44.82245         0.82255
O         47.44847        31.31199        -2.27497
H         48.20301        31.80577        -2.67983
O         41.72045        38.70492        -1.03198
H         40.72737        38.68963        -1.01538
O         45.18029        44.49354        -0.67173
H         45.84032        45.08122        -1.09846
O         42.13293        44.95306         2.50874
H         42.81805        45.51376         2.94413
O         38.91136        43.89957        -3.23063
H         39.48510        44.27609        -3.92894
O         42.50331        41.80598         3.36326
H         42.77073        42.71320         3.64180
O         38.04463        31.96664        -0.38538
H         38.41146        32.87958        -0.43339
O         42.85120        47.30101        -2.57184
H         42.35519        46.59576        -3.04963
O         54.03266        29.65585         0.10131
H         54.78006        30.26260        -0.06536
O         31.86504        30.80585         1.38372
H         31.36870        31.32067         2.06314
O         38.78330        33.92047         3.66224
H         38.95529        33.06467         4.10493
O         49.82760        33.73128         1.90194
H         50.30498        34.56589         2.11143
O         31.87715        32.54603        -2.03662
H         32.41625        32.04141        -2.67779
O         34.79947        27.77689        -0.42837
H         35.59204        27.19158        -0.50146
O         43.59515        32.99776         2.50512
H         42.98308        32.89388         3.27062
