         732
 CSIRO Nanostructure Databank - Neutral Graphene Oxide Data Set
C         22.98504        24.56455         2.04445
C         21.78274        25.25879         2.08546
C         22.96450        27.37716         1.94789
C         21.77178        26.65767         2.01139
C         22.95471        28.87837         1.73005
C         21.74531        29.61005         2.26376
C         23.03025        31.70504         2.76345
C         21.76873        30.89461         2.63727
C         22.99584        33.08657         2.11706
C         21.76549        33.76405         1.81836
C         22.92947        35.86079         1.29993
C         21.73728        35.09472         1.45468
C         22.96000        37.23695         1.01056
C         21.76006        37.95900         0.71062
C         23.02304        39.99084         0.18913
C         21.79293        39.26113         0.29391
C         23.05688        41.31944        -0.34304
C         21.90258        41.92574        -0.90844
C         23.17680        43.90147        -1.55744
C         21.96080        43.16663        -1.50003
C         23.26084        45.17405        -2.23567
C         22.12247        45.75628        -2.84322
C         23.45204        47.60462        -3.65059
C         22.21543        46.96192        -3.52061
C         25.50608        23.10501         1.69106
C         25.47236        24.51180         1.83353
C         24.21409        25.24904         1.95617
C         25.44964        27.40755         2.01082
C         24.20516        26.67773         1.94012
C         25.47726        28.82096         2.07381
C         24.24674        29.56071         2.12283
C         25.48742        31.66372         2.24415
C         24.25994        30.93435         2.32011
C         25.46602        33.09485         2.19865
C         24.19355        33.76213         1.98376
C         25.35867        35.97378         1.85390
C         24.24049        35.11636         1.31178
C         25.41114        37.38587         1.40382
C         24.21688        37.98427         0.99333
C         25.45314        40.11665         0.65689
C         24.22701        39.36811         0.60439
C         25.46234        41.48242         0.22183
C         24.28586        42.04995        -0.34699
C         25.55251        44.09819        -0.91279
C         24.33151        43.34703        -0.94862
C         25.65060        45.33562        -1.60460
C         24.51760        45.85029        -2.31705
C         25.90250        47.70397        -3.26580
C         24.61024        47.06236        -3.07872
C         26.08985        48.76639        -4.10856
C         27.94204        23.10771         1.50759
C         26.70384        22.42544         1.55102
C         27.93293        24.51609         1.67489
C         26.70636        25.20278         1.85070
C         28.02952        27.44587         2.01815
C         26.68884        26.64952         2.15002
C         27.94696        28.88812         1.82333
C         26.72159        29.54975         2.03544
C         27.92206        31.71654         1.87349
C         26.71050        30.98148         2.04964
C         27.92279        33.14333         2.00539
C         26.67397        33.81038         2.17604
C         27.87681        36.07525         2.27794
C         26.61316        35.28555         2.27130
C         27.83453        37.48666         1.90382
C         26.64900        38.11667         1.47653
C         27.88040        40.27761         1.20337
C         26.65204        39.50954         1.11226
C         27.85283        41.71330         0.90435
C         26.64703        42.28348         0.35775
C         27.75734        44.51922         0.15907
C         26.65841        43.59403        -0.16832
C         27.89829        45.71635        -0.69209
C         26.90703        46.04890        -1.59449
C         28.15167        48.15339        -2.25888
C         27.15524        47.07006        -2.68972
C         28.39543        49.15272        -3.38544
C         27.36880        49.41912        -4.23933
C         30.36327        20.29335         0.66673
C         29.22296        20.96043         1.06716
C         30.27772        23.11321         0.69690
C         29.16591        22.39395         1.12622
C         30.41293        24.53531         1.01899
C         29.21448        25.26292         1.60772
C         30.27551        27.46471         1.01890
C         29.20236        26.74136         1.51584
C         30.30171        28.90460         1.08439
C         29.12909        29.60300         1.47686
C         30.32719        31.76277         1.33866
C         29.12469        31.03444         1.55268
C         30.33132        33.19158         1.47374
C         29.14400        33.86262         1.84922
C         30.37844        36.07688         1.63728
C         29.19498        35.31826         2.08883
C         30.35116        37.49587         1.59549
C         29.11246        38.25129         2.11165
C         30.34953        40.41520         1.70189
C         29.05128        39.67069         1.61466
C         30.28163        41.85515         1.23847
C         29.01261        42.49478         1.06099
C         30.27857        44.79642         1.18361
C         28.98626        43.96072         0.93585
C         30.30966        46.06482         0.25241
C         29.24183        46.34864        -0.77696
C         30.64528        48.36551        -1.61371
C         29.42590        47.51726        -1.71124
C         30.67679        49.68847        -2.28310
C         29.57448        50.05372        -3.25575
C         31.09743        51.66534        -4.39849
C         29.92544        50.99993        -4.33754
C         32.75053        18.91037        -0.37157
C         32.69448        20.33018        -0.25948
C         31.49394        20.97694         0.14489
C         32.64921        23.23711        -0.33544
C         31.38721        22.43374         0.01310
C         32.66203        24.69615        -0.05375
C         31.51971        25.31475         0.42310
C         32.70008        27.57138         0.10764
C         31.40835        26.77084         0.37513
C         32.72966        28.97015         0.55239
C         31.51989        29.63647         0.86190
C         32.75491        31.78037         0.94444
C         31.53083        31.06149         1.04675
C         32.75185        33.21575         1.01541
C         31.54985        33.92018         1.25308
C         32.76002        36.08622         1.04163
C         31.55089        35.36603         1.28318
C         32.74826        37.51291         1.05062
C         31.50959        38.19785         1.23873
C         32.76073        40.39278         1.12330
C         31.44725        39.66998         0.91310
C         32.71564        41.76840         1.23513
C         31.48563        42.52044         1.12289
C         32.84542        44.61099         0.46197
C         31.63325        44.00804         1.16481
C         32.85457        45.95913         0.25065
C         31.62112        46.70772        -0.06223
C         33.00821        48.64334        -0.92819
C         31.73891        47.88279        -0.97176
C         33.21321        49.75270        -1.87457
C         31.99707        50.41108        -2.36734
C         33.55203        51.99740        -3.64653
C         32.16943        51.52031        -3.39178
C         33.75437        53.08573        -4.52592
C         35.14361        18.96407        -0.84755
C         33.91919        18.25726        -0.67673
C         35.13488        20.38201        -0.74112
C         33.90489        21.07996        -0.49964
C         35.12360        23.22399        -0.59249
C         33.91566        22.49993        -0.44780
C         35.08624        24.69745        -0.66534
C         33.87665        25.44068        -0.28076
C         35.20850        27.51351         0.12159
C         33.94775        26.82037        -0.06288
C         35.21026        28.92715         0.48538
C         33.98026        29.64134         0.62400
C         35.21285        31.76781         0.84128
C         33.97741        31.06268         0.80877
C         35.18758        33.20262         0.80829
C         33.99109        33.92851         0.84904
C         35.18851        36.11522         0.70979
C         33.99176        35.38264         0.82959
C         35.21326        37.53847         0.86427
C         33.98626        38.24336         0.96771
C         35.23510        40.36583         1.21092
C         34.00665        39.67717         1.10892
C         35.24474        41.80725         1.54055
C         33.92638        42.53417         1.55564
C         35.15601        44.77351         1.85831
C         33.80150        44.03671         1.49648
C         35.22898        46.17506         1.19197
C         34.05839        46.76908         0.49973
C         35.57055        48.40053        -0.77386
C         34.19686        48.06956        -0.24036
C         35.63720        49.79826        -1.35366
C         34.48391        50.33880        -2.01724
C         35.90048        52.16060        -2.94974
C         34.62887        51.51284        -2.86962
C         36.03844        53.35091        -3.73162
C         34.95568        53.76297        -4.55057
C         37.61144        16.20645        -1.51569
C         36.41584        16.86205        -1.27204
C         37.60122        18.99978        -1.19484
C         36.37785        18.26669        -1.11176
C         37.59450        20.41832        -1.04604
C         36.36489        21.11415        -0.85382
C         37.60731        23.26197        -0.79348
C         36.35392        22.53946        -0.75648
C         37.65999        24.64065        -0.49154
C         36.43817        25.45404        -0.52738
C         37.63997        27.38746         0.66307
C         36.40842        26.81825         0.00216
C         37.70065        28.90976         0.56142
C         36.44750        29.62586         0.65907
C         37.69446        31.75219         1.13553
C         36.43124        31.03829         0.85318
C         37.68390        33.27247         1.25740
C         36.46537        33.90297         0.61826
C         37.71827        36.11748         0.83001
C         36.46249        35.40636         0.53271
C         37.68800        37.50630         0.98192
C         36.46842        38.24268         0.96247
C         37.70063        40.41270         1.25332
C         36.48002        39.67468         1.13930
C         37.70399        41.86913         1.34004
C         36.48733        42.59860         1.42547
C         37.69207        44.72933         1.62396
C         36.46925        44.00818         1.57195
C         37.65610        46.26568         1.80995
C         36.54504        46.85425         0.95647
C         37.82594        48.94112         0.41182
C         36.65859        47.99313         0.21527
C         38.00836        49.98474        -0.67612
C         36.88438        50.47142        -1.40434
C         38.26292        52.34420        -2.28427
C         37.01530        51.66891        -2.20607
C         38.39162        53.56138        -3.03898
C         37.25704        54.09920        -3.68750
C         38.46668        56.15031        -4.24237
C         37.31462        55.44456        -4.21904
C         40.00398        15.17629        -2.98909
C         40.08728        16.12536        -1.81116
C         38.82298        16.91428        -1.59837
C         40.08495        19.04372        -1.42293
C         38.83587        18.30886        -1.41793
C         40.07959        20.43547        -1.32325
C         38.82944        21.14772        -1.14331
C         40.05656        23.32213        -1.37860
C         38.82077        22.54286        -1.02109
C         40.08342        24.71687        -0.79837
C         38.92593        25.31476        -0.35210
C         40.20312        27.47387         0.13637
C         38.94610        26.67577         0.27147
C         40.16389        28.94208         0.25554
C         38.92197        29.59213         0.51548
C         40.20147        31.81812         0.55656
C         38.98480        31.03314         0.85839
C         40.17254        33.24522         0.61246
C         38.96400        33.96563         0.83797
C         40.19516        36.11125         0.71734
C         38.94959        35.37249         0.81957
C         40.18386        37.48876         0.83210
C         38.96479        38.19677         1.37289
C         40.14741        40.38379         1.25016
C         38.95015        39.70255         1.20206
C         40.16195        41.81142         1.60134
C         38.91649        42.59069         1.48506
C         40.22340        44.68720         1.67991
C         38.93380        44.00989         1.62201
C         40.29645        46.15903         1.67233
C         38.99978        46.98114         1.57353
C         40.33116        48.83739         0.55702
C         39.09884        48.22530         0.79621
C         40.42502        50.09551        -0.15581
C         39.26144        50.64285        -0.78891
C         40.65364        52.49382        -1.69179
C         39.39444        51.82846        -1.58801
C         40.78156        53.71903        -2.46273
C         39.66233        54.23379        -3.11930
C         41.03173        56.29866        -3.88661
C         39.74517        55.50469        -3.88661
C         40.97556        57.77146        -4.04046
C         42.43049        15.16111        -3.10095
C         41.14098        14.68814        -3.53737
C         42.53915        16.27066        -2.28888
C         41.33965        16.96279        -1.86931
C         42.58095        19.06145        -1.45589
C         41.34098        18.32126        -1.55485
C         42.59381        20.43955        -1.28727
C         41.33411        21.17756        -1.25733
C         42.58553        23.25649        -0.67183
C         41.33490        22.55085        -1.14182
C         42.61452        24.73569        -0.94125
C         41.32645        25.50887        -1.12281
C         42.55812        27.57664        -0.53317
C         41.39443        26.86959        -0.48149
C         42.59173        28.98788        -0.17933
C         41.36214        29.66998         0.11657
C         42.62407        31.79727         0.08487
C         41.38773        31.10595         0.25208
C         42.59556        33.25741        -0.02076
C         41.37918        33.98940         0.35370
C         42.69010        36.09043         0.49307
C         41.42301        35.38226         0.46345
C         42.70736        37.50094         0.68118
C         41.43155        38.23795         0.62800
C         42.71845        40.36924         1.16420
C         41.43075        39.72103         0.91271
C         42.75070        41.79536         1.35479
C         41.48851        42.52339         1.67295
C         42.68092        44.66650         1.39329
C         41.44571        43.99382         1.54879
C         42.74848        46.06333         1.27623
C         41.54116        46.81134         1.24803
C         42.83393        48.80566         0.67935
C         41.56678        48.15711         0.87582
C         42.89508        50.10408         0.15829
C         41.68520        50.72425        -0.33892
C         43.14658        52.47986        -1.41871
C         41.78655        51.93040        -1.07279
C         43.12570        53.94774        -1.73299
C         42.04026        54.45010        -2.41792
C         43.14562        56.69408        -2.49566
C         42.28746        55.70315        -3.25329
C         42.91132        58.03411        -2.57017
C         41.83763        58.57353        -3.37607
C         45.10964        16.29976        -2.40895
C         43.84684        16.84557        -1.89716
C         45.12034        19.06165        -1.60359
C         43.85735        18.31577        -1.46863
C         45.10375        20.47132        -1.45373
C         43.85582        21.17136        -1.25346
C         45.08889        23.29912        -1.12568
C         43.86252        22.55773        -1.08319
C         45.08090        24.71488        -1.01228
C         43.80510        25.40881        -1.00364
C         45.09315        27.59257        -0.77996
C         43.78854        26.89346        -1.01355
C         45.05751        28.91972        -0.11415
C         43.80183        29.69045        -0.14233
C         45.12995        31.80890         0.07723
C         43.84803        31.10725         0.00064
C         45.17432        33.21997         0.17463
C         43.93928        33.99631         0.01162
C         45.16123        36.06895         0.60656
C         43.92141        35.40449         0.40866
C         45.16021        37.47757         0.82208
C         43.92000        38.19255         0.83932
C         45.16656        40.30477         1.08967
C         43.92287        39.63571         1.02118
C         45.21288        41.78603         0.87377
C         43.92996        42.48129         1.20757
C         45.18210        44.62094         1.58824
C         43.95220        43.96063         1.01640
C         45.22927        46.01059         1.52929
C         44.01394        46.72724         1.21120
C         45.30469        48.79981         1.01644
C         44.05398        48.11295         0.99461
C         45.34317        50.15778         0.61365
C         44.16163        50.77580         0.08863
C         45.44380        52.79754        -0.42200
C         44.25283        52.05108        -0.50096
C         45.47565        54.15985        -0.89923
C         44.32536        54.74044        -1.51013
C         45.46194        56.89599        -1.55275
C         44.31548        56.11910        -1.82941
C         46.27222        16.98892        -2.29094
C         47.56861        19.08337        -1.84468
C         46.32586        18.37082        -1.86434
C         47.57402        20.49298        -1.64732
C         46.33439        21.19213        -1.47426
C         47.56639        23.32249        -1.29293
C         46.33273        22.60615        -1.30149
C         47.56656        24.73082        -1.09066
C         46.32157        25.43412        -0.95694
C         47.57712        27.53851        -0.57783
C         46.35189        26.83007        -0.73236
C         47.60026        28.93152        -0.27951
C         46.36200        29.63588         0.07047
C         47.60731        31.77491         0.20701
C         46.35682        31.10222         0.11290
C         47.63361        33.20001         0.38215
C         46.40349        33.90977         0.37784
C         47.63008        36.03144         0.67052
C         46.39913        35.34228         0.53996
C         47.61133        37.43402         0.91852
C         46.40601        38.15770         0.98603
C         47.59725        40.33761         1.17355
C         46.39580        39.60499         1.10588
C         47.62094        41.75838         1.42234
C         46.42498        42.46147         1.45759
C         47.59677        44.53132         2.40579
C         46.26813        43.77625         2.19332
C         47.59091        46.04995         2.36569
C         46.43218        46.74973         1.77273
C         47.74756        48.84206         1.46412
C         46.50228        48.12384         1.44650
C         47.78312        50.20723         1.04345
C         46.57696        50.87047         0.62467
C         47.83195        52.96217         0.22901
C         46.61045        52.21686         0.17270
C         47.85475        54.31293        -0.19620
C         46.65182        54.93994        -0.70354
C         46.60694        56.31840        -1.02982
C         50.01020        19.09596        -1.97879
C         48.82303        18.41340        -1.99944
C         50.05592        20.51803        -1.81633
C         48.81106        21.21427        -1.64725
C         50.03716        23.35330        -1.49122
C         48.80770        22.62616        -1.47018
C         50.03458        24.76157        -1.30220
C         48.79693        25.45202        -1.06561
C         50.04185        27.57898        -0.76504
C         48.81097        26.84465        -0.79359
C         50.03623        28.94068        -0.43345
C         48.81901        29.64344        -0.16704
C         50.06220        31.70561         0.70323
C         48.82252        31.03570         0.15457
C         50.12573        33.20075         0.44846
C         48.89166        33.90739         0.47143
C         50.13739        36.02598         0.62366
C         48.88808        35.32556         0.58770
C         50.15909        37.44331         0.79588
C         48.89097        38.11817         1.14805
C         50.08985        40.38477         0.95679
C         48.86198        39.61394         1.27939
C         50.10237        41.78760         1.41363
C         48.89339        42.40995         1.69688
C         50.17587        44.54638         2.06962
C         48.90300        43.80204         2.18506
C         50.17654        45.97661         2.48770
C         48.90143        46.79140         2.45164
C         50.16585        48.86781         1.88623
C         48.96920        48.18569         1.89601
C         50.31168        50.20733         1.18620
C         49.00317        50.94397         1.02133
C         50.28602        53.04795         0.69098
C         49.03459        52.30517         0.67680
C         50.25627        54.40905         0.25013
C         49.09679        55.01704        -0.15874
C         52.56172        20.56539        -1.93888
C         51.27973        21.23513        -1.83727
C         52.48859        23.39510        -1.79021
C         51.27859        22.66304        -1.71401
C         52.48185        24.79731        -1.60170
C         51.25647        25.49146        -1.34719
C         52.49356        27.60849        -1.20869
C         51.27732        26.89940        -1.10274
C         52.55882        29.04904        -0.86307
C         51.28465        29.72054        -0.45454
C         52.66377        31.73063         0.26127
C         51.36694        30.98335         0.34931
C         52.63446        33.21204         0.31779
C         51.36644        33.89135         0.42243
C         52.60740        36.05464         0.43628
C         51.37204        35.32741         0.47919
C         52.59882        37.48010         0.56917
C         51.36050        38.15552         0.75225
C         52.62296        40.35997         1.02868
C         51.36474        39.64126         0.75506
C         52.57989        41.71414         1.43602
C         51.36829        42.44005         1.56704
C         52.65176        44.56234         1.84560
C         51.36282        43.86796         1.83732
C         52.63699        46.06870         1.69634
C         51.46482        46.72032         2.40729
C         52.72316        48.94757         2.18593
C         51.41681        48.22583         2.34794
C         52.74309        50.36169         1.79626
C         51.41253        51.08756         1.80229
C         52.74505        53.09098         1.08505
C         51.47928        52.44475         1.13225
C         53.72677        21.23882        -2.06696
C         55.00714        23.41224        -1.69802
C         53.77011        22.72976        -2.25642
C         54.97144        24.81477        -1.54199
C         53.70793        25.53843        -1.65256
C         54.95488        27.72045        -1.81465
C         53.68070        26.93652        -1.57721
C         55.07287        28.84860        -0.76568
C         53.85724        29.66673        -0.47653
C         55.10552        31.83307        -0.21055
C         53.89500        31.03058        -0.21620
C         55.07950        33.20912        -0.04743
C         53.83236        33.92945         0.16317
C         55.04723        36.13494         0.03679
C         53.84358        35.37039         0.22800
C         55.00528        37.55738         0.14736
C         53.82004        38.23173         0.47787
C         55.06533        40.37917         0.80141
C         53.83933        39.66362         0.77767
C         55.10183        41.74308         1.30404
C         53.85606        42.34323         1.95252
C         55.10632        44.57260         2.07138
C         53.82197        43.86467         1.86073
C         55.16317        46.04504         2.00740
C         53.94888        46.77143         1.98541
C         55.20855        48.87757         1.99664
C         53.97395        48.16716         2.04713
C         55.21400        50.30527         1.86999
C         53.94750        51.03050         1.69636
C         53.92082        52.43629         1.37632
C         57.32647        23.43146        -0.94931
C         56.20430        22.74187        -1.42008
C         57.29905        24.82269        -0.77346
C         56.11026        25.51045        -1.07806
C         57.46755        27.53014        -1.54177
C         56.09294        27.00740        -1.07941
C         57.48741        29.05101        -1.51809
C         56.32593        29.68036        -0.82493
C         57.61441        31.86271        -0.78883
C         56.38132        31.12160        -0.45415
C         57.62050        33.30840        -0.48961
C         56.34144        33.99800        -0.11568
C         57.50164        36.19181        -0.44302
C         56.29163        35.47715        -0.24102
C         57.51739        37.63651        -0.26814
C         56.20188        38.37608        -0.26432
C         57.48708        40.43383         0.35936
C         56.27810        39.74800         0.37068
C         57.50490        41.92349         0.58918
C         56.28610        42.43446         1.31442
C         57.63996        44.57749         1.70719
C         56.38503        43.80814         1.85722
C         57.64838        45.97410         1.90462
C         56.40508        46.71491         2.01597
C         57.68032        48.84767         1.99739
C         56.43513        48.14538         2.00513
C         57.65288        50.24823         1.95155
C         56.45034        50.95876         1.86519
C         59.74690        24.84673        -0.00525
C         58.46088        25.60392        -0.16265
C         59.91234        27.57399        -0.91034
C         58.65823        26.94351        -0.83070
C         60.02406        28.99432        -1.28344
C         58.77997        29.77351        -1.46171
C         60.05107        31.92427        -1.20817
C         58.77753        31.21881        -1.11516
C         60.04617        33.36285        -1.13765
C         58.71268        34.08574        -1.17841
C         59.95274        36.22693        -0.85001
C         58.73767        35.52931        -0.73862
C         59.96537        37.73576        -0.82148
C         58.69677        38.34880        -0.27243
C         59.97055        40.39724         0.27108
C         58.73679        39.76603         0.06958
C         60.04970        41.89438         0.51646
C         58.80331        42.37121         1.28682
C         60.08178        44.50823         1.65753
C         58.84580        43.87042         1.50525
C         60.12273        45.93099         1.84778
C         58.89854        46.66963         1.91314
C         60.17460        48.74016         2.09840
C         58.93375        48.09714         2.01422
C         60.95873        25.47376        -0.14375
C         61.06438        26.82783        -0.53663
C         61.19651        29.72676        -1.24462
C         61.21042        31.14970        -1.31016
C         61.20307        34.13433        -1.19210
C         61.14875        35.53592        -1.12415
C         61.20058        38.34213        -0.22545
C         61.18464        39.62370         0.20543
C         61.27315        42.40508         1.24831
C         61.28131        43.67506         1.69912
C         61.35347        46.63155         1.93013
C         61.37175        48.00914         2.06604
O         57.36292        33.60218         0.90865
O         55.59627        27.71182         0.16414
O         43.90532        17.22733        -0.48307
O         34.53742        42.09249         2.80590
O         33.45329        49.10622         0.43114
O         34.29576        47.03982         1.93588
O         55.83308        43.97566         3.22549
O         57.99964        29.60737        -2.75901
O         44.46938        27.57474        -2.11550
O         52.05418        48.81313         3.53826
O         36.60389        34.54037        -0.67754
O         39.87513        26.73760         1.41282
O         45.66738        28.95022         1.21265
O         30.27692        24.76272         2.48691
O         43.23291        33.74419        -1.25341
O         48.97573        38.77468         2.48180
O         50.59796        40.19118        -0.40757
O         38.47458        31.20436         2.25593
O         41.36151        39.20365        -0.49871
O         52.24746        30.98723         1.50902
O         30.77169        47.17687         1.07347
O         39.75979        46.92340         2.81444
O         29.60137        50.59648        -1.87495
O         31.65829        22.90591        -1.36594
O         51.04254        46.18171         3.67357
O         32.55676        44.23910         2.41583
O         28.72960        35.73308         3.43601
O         29.76712        46.16823        -2.15830
O         27.89020        44.62791         1.61129
O         40.86055        42.03735         2.90137
O         35.75186        25.27874        -1.82267
O         25.64188        35.77933         3.27236
O         56.68384        30.07461         0.54716
O         31.71487        27.32544        -0.94612
O         48.04575        46.66375         3.62199
O         31.82933        51.81850        -1.99668
O         40.66036        55.51700        -5.07296
O         51.81251        29.91028        -1.82355
O         27.51264        26.99452         3.30798
O         48.29734        43.98930         3.55271
O         27.76325        46.35118        -3.79876
H         27.15096        45.63518        -4.06667
O         37.43745        27.11899         2.08637
H         38.33403        27.14458         2.49857
O         44.04020        44.18772        -0.45062
H         44.68660        43.51737        -0.79959
O         40.21968        15.26439        -0.62481
H         41.08812        14.81256        -0.69114
O         49.88643        31.59368         2.15135
H         50.79322        31.51490         2.53627
O         58.30910        34.10349        -2.59710
H         59.06341        34.45889        -3.11344
O         30.77318        40.49350         3.08256
H         30.32902        39.77345         3.59482
O         58.84521        41.72043         2.57639
H         58.13079        42.09287         3.13533
O         43.50217        51.83275        -2.70818
H         42.99855        52.29326        -3.41408
O         39.97870        23.47225        -2.87057
H         39.05962        23.74869        -3.08092
O         55.13196        28.07115        -3.17828
H         54.25490        28.18166        -3.59805
O         50.77494        49.88164        -0.16789
H         50.03898        49.43886        -0.64060
O         41.23337        25.80515        -2.56254
H         40.96969        24.96040        -3.01243
O         37.51720        33.56831         2.67678
H         38.02156        32.87491         3.16451
O         58.00427        25.90885         1.21134
H         58.64066        26.54166         1.60717
O         57.45373        42.56126        -0.74008
H         56.67652        42.19208        -1.21142
O         43.12621        55.24237        -4.35724
H         42.50827        54.99046        -5.08297
O         52.35822        46.32774         0.27683
H         53.11083        45.98727        -0.25134
O         35.13834        44.95980         3.27077
H         34.48059        45.66364         3.46497
O         55.95479        38.66228        -1.70262
H         56.74598        39.13522        -2.04020
O         53.91361        42.00857         3.36990
H         54.62006        42.57837         3.76141
O         60.11312        42.51617        -0.79253
H         59.20502        42.50575        -1.17921
O         27.55650        48.88650        -1.16627
H         28.11149        49.69135        -1.01927
O         37.44266        49.70570         1.61683
H         38.15146        50.36217         1.78747
O         53.83100        22.95350        -3.71180
H         53.03767        22.53228        -4.10531
O         45.76700        43.41379         3.51852
H         46.55529        43.33313         4.10671
O         29.30646        38.32966         3.57240
H         29.22208        37.40055         3.91410
O         22.89669        29.02639         0.26427
H         22.92122        29.98617         0.06435
O         24.59112        34.87041        -0.09715
H         23.83519        34.40320        -0.51152
O         37.29636        46.49059         3.18597
H         37.28969        47.45755         3.34391
O         42.53446        23.14910         0.80672
H         42.59354        22.19619         1.03438
O         23.19518        31.93810         4.19640
H         23.98632        32.50509         4.31878
O         45.39491        41.90640        -0.63247
H         44.76146        41.27799        -1.04481
O         57.62934        27.07048        -2.90676
H         57.90246        27.86054        -3.43524
O         31.08986        39.76459        -0.49867
H         31.76961        39.28284        -1.01504
O         30.12216        45.25300         2.52610
H         30.69952        46.04134         2.64347
O         59.97372        38.13678        -2.24828
H         59.19023        37.72052        -2.66741
O         39.06446        38.04261         2.84192
H         38.87836        37.10338         3.05782
O         51.08923        51.35087         3.19360
H         51.32082        50.53346         3.70368
O         35.73502        47.48699        -1.92102
H         36.56221        47.73538        -2.38613
H         22.96232        23.46772         2.08289
H         20.83410        24.70863         2.15061
H         20.80412        27.17620         1.99961
H         20.77579        29.09001         2.24087
H         20.83894        31.36625         2.99141
H         20.81608        33.22579         1.94426
H         20.75871        35.58187         1.33951
H         20.79097        37.44589         0.77005
H         20.84508        39.75592         0.04536
H         20.94334        41.39239        -0.90585
H         21.04429        43.57855        -1.94139
H         21.14451        45.26302        -2.77708
H         23.49989        48.54658        -4.21231
H         21.31940        47.40805        -3.97338
H         24.57341        22.52638         1.67617
H         25.25359        49.19661        -4.67688
H         26.67482        21.33517         1.42454
H         27.45545        50.21656        -4.99171
H         30.38144        19.19766         0.74581
H         28.37368        20.36927         1.43411
H         31.29389        52.29975        -5.27550
H         29.20825        51.12386        -5.16194
H         31.83442        18.32046        -0.23589
H         32.92477        53.44517        -5.14964
H         33.89834        17.16361        -0.76561
H         35.06226        54.63292        -5.21126
H         37.61796        15.11317        -1.62332
H         35.49520        16.26817        -1.20764
H         38.47750        57.17197        -4.64441
H         36.38590        55.92546        -4.55461
H         39.02131        14.79570        -3.30321
H         40.20089        58.20504        -4.68722
H         43.32771        14.65842        -3.48629
H         41.10207        13.92586        -4.32883
H         43.57012        58.74563        -2.05216
H         41.75966        59.66551        -3.47248
H         45.11542        15.30465        -2.87566
H         45.46804        57.96657        -1.80034
H         47.19598        16.51255        -2.64591
H         47.48577        56.95500        -0.86321
H         50.94313        18.52989        -2.09906
H         48.84774        17.32247        -2.12024
H         51.18226        54.99914         0.25190
H         49.14082        56.06502        -0.48323
H         52.59254        19.46813        -1.88435
H         52.80962        54.13728         0.75420
H         54.66234        20.66922        -2.16166
H         54.86399        52.99433         1.30579
H         58.24025        22.86291        -0.72789
H         56.27798        21.65387        -1.55354
H         58.59056        50.81970         1.94652
H         56.49950        52.05317         1.78937
H         59.71009        23.81713         0.37765
H         60.23049        49.83283         2.19148
H         61.88363        24.91666         0.06658
H         62.05981        27.28729        -0.59098
H         62.16494        29.21824        -1.13050
H         62.19172        31.64348        -1.34295
H         62.18752        33.65227        -1.27556
H         62.08625        36.09631        -1.23407
H         62.14534        37.78151        -0.23599
H         62.12449        40.07892         0.54595
H         62.18919        41.80243         1.31710
H         62.19325        44.08648         2.15574
H         62.30230        46.08178         1.87457
H         62.33095        48.54103         2.13229
