         486
 CSIRO Nanostructure Databank - Neutral Graphene Oxide Data Set
C          8.24842        19.00675        -0.20168
C          8.26211        20.36897        -0.10822
C          7.06150        21.19265        -0.13549
C          8.34837        23.29661        -0.40839
C          7.08113        22.54760        -0.23459
C          8.44163        24.77615        -0.27164
C         10.67009        14.67368        -1.03404
C         10.62170        16.17893        -1.14738
C          9.45051        16.87464        -0.49636
C         10.72943        18.99067        -0.75856
C          9.46764        18.22926        -0.37605
C         10.81752        20.36372        -0.16609
C          9.54858        21.07019         0.23865
C         10.84118        23.19067         0.19673
C          9.59439        22.50182        -0.24610
C         10.83308        24.66923         0.36833
C          9.59392        25.42994         0.01868
C         10.83627        27.56837         0.68314
C          9.61856        26.95872        -0.01922
C         10.95369        29.09094         0.72405
C         13.04610        10.44197        -0.43746
C         13.04814        11.77195        -0.83311
C         11.83735        12.51676        -0.89414
C         13.14425        14.61401        -0.58332
C         11.83644        13.93356        -0.95473
C         13.15541        16.04652        -1.12241
C         11.93108        16.84532        -0.78601
C         13.29567        18.86259        -0.44110
C         11.99998        18.18440        -0.59026
C         13.30064        20.23761         0.10639
C         12.04408        21.03361        -0.04730
C         13.35739        23.16364         0.22262
C         12.09780        22.43755         0.06761
C         13.33081        24.62840         0.53648
C         12.14903        25.33752         0.45196
C         13.40972        27.41622         1.09911
C         12.08692        26.75981         0.83222
C         13.42985        28.84428         1.51571
C         12.18231        29.65466         1.44156
C         13.42996        31.74464         1.92458
C         12.20307        30.98952         1.74595
C         13.47914        33.10978         2.06362
C         15.45720         7.94437         1.00976
C         14.31727         8.38964         0.45562
C         15.57007        10.23801        -0.78733
C         14.26094         9.61563        -0.38934
C         15.60750        11.68396        -1.18928
C         14.32466        12.45669        -1.19776
C         15.57097        14.60563        -1.40898
C         14.41360        13.94073        -1.10493
C         15.61375        16.12423        -1.62262
C         14.49700        16.71941        -0.76560
C         15.81304        18.80357        -0.40243
C         14.47192        18.21806        -0.68716
C         15.91323        20.12822         0.30360
C         14.58852        20.86103         0.58085
C         15.24828        23.28584         1.66581
C         14.59314        22.37673         0.63215
C         15.76377        24.58609         1.05762
C         14.61822        25.30160         0.69679
C         15.94761        27.43897         0.62426
C         14.59421        26.77591         0.37660
C         15.95073        28.96344         0.79279
C         14.77333        29.55605         1.65122
C         15.94531        31.73920         1.89175
C         14.68092        31.07189         1.39585
C         15.93793        33.20655         1.82470
C         14.72076        33.86520         1.92588
C         15.83504        36.02939         1.62305
C         14.69518        35.30839         1.80081
C         18.00775         7.95409         1.17941
C         16.74167         8.74138         0.97817
C         18.12429        10.37523        -0.41909
C         16.84001         9.64097        -0.24855
C         18.13796        11.77327        -0.90800
C         16.83132        12.52194        -0.82855
C         18.12872        14.67058        -1.27583
C         16.86635        13.83423        -1.65491
C         18.12269        16.04476        -2.01915
C         16.94946        16.83744        -1.43151
C         18.20601        19.00021        -1.28334
C         16.99060        18.15472        -1.07983
C         18.27380        20.40649        -0.74548
C         17.17463        20.92067         0.13019
C         18.50033        23.01779         0.44672
C         17.51415        22.02670         0.88575
C         18.33107        24.42676         0.64984
C         17.11528        25.11272         0.97411
C         18.44334        27.29561         1.30828
C         17.17178        26.61406         0.87253
C         18.48690        28.79682         1.65569
C         17.19956        29.51660         1.42941
C         18.43724        31.70550         1.35023
C         17.24853        30.95557         1.74556
C         18.56122        33.19786         1.61877
C         17.22182        33.90652         1.93633
C         18.39635        36.08874         1.34040
C         17.15898        35.41298         1.78738
C         20.45332         7.98969         1.45782
C         19.23171         8.56059         0.99283
C         20.56524        10.31794        -0.26991
C         19.28764         9.99120         0.48046
C         20.60949        11.65889        -0.95279
C         19.34971        12.47210        -1.06139
C         20.65679        14.51127        -1.76800
C         19.38094        13.83471        -1.43813
C         20.72377        16.01321        -1.95513
C         19.44924        16.82061        -1.95898
C         20.79997        19.01977        -1.50145
C         19.48150        18.29179        -1.67255
C         20.85554        20.43258        -1.03719
C         19.64501        20.93889        -0.28267
C         20.84479        23.15609        -0.37472
C         19.66316        22.44367        -0.13825
C         20.75690        24.62246        -0.44075
C         19.48950        25.26078         0.14006
C         20.80466        27.46839         0.34194
C         19.65728        26.63158         0.73050
C         20.71380        28.86106         0.42519
C         19.54519        29.56032         0.86903
C         20.52065        31.69909        -0.01160
C         19.45524        30.97802         0.73195
C         20.46052        33.19844        -0.12328
C         19.19620        33.92602         0.38494
C         20.68090        36.01624         0.53288
C         19.41663        35.38556         0.76346
C         22.88309         8.14075         1.86098
C         21.71460         8.58288         1.22978
C         23.15430        10.33080        -0.01611
C         21.82242         9.63657         0.18968
C         23.19241        11.68310        -0.63056
C         21.90935        12.40058        -0.87808
C         23.23072        14.47992        -1.59096
C         21.91429        13.84555        -1.27941
C         23.29845        16.00608        -1.74789
C         21.99797        16.73406        -1.56354
C         23.37927        18.97308        -1.41459
C         22.04449        18.21264        -1.31866
C         23.36092        20.38486        -0.82396
C         22.16103        21.07076        -0.68031
C         23.34252        23.20854        -0.31490
C         22.12882        22.48848        -0.44511
C         23.33647        24.66735        -0.26613
C         22.06375        25.37252        -0.78660
C         23.26581        27.43199         0.15580
C         21.96541        26.93784        -0.49822
C         23.24226        28.99732         0.26743
C         21.88716        29.65433         0.04545
C         22.90382        31.76498        -0.91084
C         21.80797        30.99923        -0.18143
C         22.89779        33.25962        -0.62647
C         21.76171        33.92184        -0.24082
C         23.07167        36.02072         0.10523
C         21.80771        35.33966         0.10945
C         25.30034         8.31162         2.39033
C         24.15122         8.79611         1.70122
C         25.49013        10.70569         0.80111
C         24.25654         9.93055         0.85936
C         25.63689        11.80774        -0.18024
C         24.38990        12.36225        -0.72465
C         25.61837        14.42312        -1.10083
C         24.42975        13.73126        -1.19343
C         25.50689        15.82180        -0.80571
C         24.50333        16.67454        -1.20674
C         25.85745        18.91106        -0.70424
C         24.53458        18.13264        -0.87526
C         25.86055        20.40546        -0.77163
C         24.60911        21.09004        -0.64807
C         25.83999        23.18775        -0.20574
C         24.59742        22.50018        -0.39516
C         25.76139        24.60815         0.35940
C         24.53009        25.34858        -0.15450
C         25.76657        27.66250        -0.23135
C         24.53063        26.81847        -0.55312
C         25.61644        29.01939        -0.36102
C         24.28458        29.61778        -0.75497
C         25.43157        31.78526        -1.44177
C         24.28874        31.15923        -0.58343
C         25.45992        33.30495        -1.13141
C         24.17060        34.00763        -0.79532
C         25.50186        36.05814        -0.18049
C         24.23687        35.38736        -0.25442
C         27.74535         8.26923         2.71180
C         26.60237         8.83885         2.17863
C         28.04957        10.49939         0.83624
C         26.71837        10.11983         1.42728
C         28.13509        11.68781        -0.08412
C         26.86146        12.40188        -0.36599
C         28.22873        14.51291        -1.20270
C         26.91850        13.64760        -1.20750
C         28.36045        16.02205        -1.28241
C         27.33445        16.90471        -0.69063
C         28.35801        18.96520        -1.36978
C         27.14325        18.22232        -0.96593
C         28.36907        20.44598        -1.08318
C         27.07498        21.11744        -0.71615
C         28.34896        23.18082        -0.03072
C         27.05566        22.50184        -0.35226
C         28.37286        24.69167         0.11483
C         27.06077        25.45356         0.23548
C         28.37891        27.56278        -0.33757
C         27.05825        26.94940         0.04943
C         28.54772        28.96711        -0.27493
C         26.66561        30.02226        -0.24636
C         28.00223        31.88964        -1.44806
C         26.74153        31.15573        -0.99733
C         28.05695        33.26199        -0.78190
C         26.73313        33.94701        -0.63297
C         27.94571        36.04604        -0.03290
C         26.70366        35.41240        -0.37405
C         30.24325         8.35942         3.15754
C         29.11678         8.62269         2.18220
C         30.60081        10.44368         1.16175
C         29.20319        10.11659         1.73407
C         30.67215        11.81558         0.42303
C         29.47836        12.37751        -0.33398
C         30.76450        14.62749        -0.60230
C         29.58028        13.75766        -1.09530
C         30.85246        15.94770        -0.96315
C         29.70193        16.70216        -1.61041
C         30.90599        18.92182        -1.03045
C         29.63371        18.17035        -1.16337
C         30.87964        20.40874        -0.91368
C         29.68931        21.07341        -0.77029
C         30.95625        23.27007        -0.32331
C         29.66644        22.46046        -0.24699
C         30.82079        24.72999        -0.50304
C         29.62292        25.40382        -0.31190
C         30.82476        27.65369        -0.51449
C         29.55036        26.82779        -0.54695
C         30.74249        29.03533        -1.15202
C         29.55548        29.70815        -0.97975
C         30.66182        31.97980        -1.33341
C         29.39083        31.15276        -1.35556
C         30.67516        33.49889        -1.07208
C         29.25265        34.18223        -1.06548
C         30.30044        35.89969         0.54650
C         29.16031        35.40934        -0.16585
C         31.36285         9.11436         3.17749
C         32.62157        11.10508         2.46677
C         31.56846        10.26661         2.30946
C         32.77924        12.31633         1.68292
C         31.79509        12.73684         0.74214
C         33.06540        14.78459         0.36647
C         31.88824        14.01991         0.14263
C         33.34473        15.99908        -0.43254
C         32.15791        16.66685        -1.05805
C         33.47656        18.92255        -1.18096
C         32.18062        18.16396        -1.28642
C         33.37593        20.43076        -1.39883
C         32.22293        21.06509        -0.60100
C         33.34470        23.27325        -0.98725
C         32.20339        22.57589        -0.77437
C         33.32060        24.75460        -0.66265
C         32.01642        25.41457        -1.14514
C         33.24280        27.59875        -0.82992
C         32.06651        26.90121        -0.88723
C         33.25742        29.07105        -0.98231
C         32.00654        29.78222        -1.36537
C         32.89971        31.75337        -0.05894
C         32.04832        31.31528        -1.23579
C         32.57611        33.00475         0.55248
C         31.52459        33.80926         0.16070
C         31.38979        35.10235         0.76893
C         33.88487        13.12270         1.95278
C         35.18668        15.16544         1.62560
C         34.07193        14.34341         1.27231
C         35.40078        16.42550         1.06597
C         34.57987        16.82325        -0.09989
C         35.74705        19.09449         0.01034
C         34.68965        18.24857        -0.57088
C         35.92666        20.44965        -0.54917
C         34.72756        21.13529        -1.17649
C         35.77772        23.38385        -0.63340
C         34.67885        22.64878        -1.40247
C         35.89360        24.85005        -0.89856
C         34.56829        25.54215        -1.06028
C         35.69551        27.70961        -0.51479
C         34.53674        26.98196        -0.81757
C         35.56879        29.11429        -0.17015
C         34.38510        29.79878        -0.35075
C         34.08202        31.08944         0.21246
C         36.36263        17.31703         1.58020
C         37.59873        19.46903         1.60343
C         36.55333        18.62341         1.05247
C         37.88451        20.70210         1.09309
C         37.17718        21.23415        -0.13600
C         38.08758        23.53698         0.46200
C         36.91117        22.71891         0.05359
C         38.11586        24.89909         0.25333
C         37.02303        25.62314        -0.34528
C         36.92568        27.00510        -0.26700
C         38.95063        21.53678         1.60127
C         39.09330        22.84779         1.23446
O         27.14503        26.36310         1.39501
O         26.01927        11.18851         2.13399
O         13.47571        27.72493         2.50775
O         19.44415        17.79249        -3.05753
O         20.83743        20.12802        -2.46370
O         19.65957        25.12492        -1.28564
O         16.84181        27.09024        -0.50106
O         28.42498        23.82058         1.28237
O         13.72940        20.22560         1.54508
O         22.68864         9.24717        -0.91099
O         35.68409        23.07059         0.80573
O         23.60934        29.33716         1.55749
O         20.11097        32.36522        -1.29474
O         23.38010        15.13663        -2.89473
O         14.87460         9.38616        -1.72939
O         27.75423        29.68041         0.58441
O         21.78589        13.50290         0.13547
O         34.51318        18.35812        -2.02090
O         20.79301        15.12070        -3.09823
O         16.05771        18.88960         1.08131
O         26.43943        16.24590         0.15123
O         10.64577        23.77403         1.55423
O         30.51584        22.65955         0.93664
O         32.25663        17.23854        -2.40369
O         28.14766        10.29040        -0.58906
O         16.65084        31.30298         3.05340
O         28.31918        19.89636        -2.46908
O         17.32126        34.76240         3.12173
O         14.94814        11.95088        -2.45010
O         35.38212        25.20290        -2.21808
O         22.26306        25.23236        -2.17468
O         19.31558        26.53454         2.18441
O         17.75202         9.26265        -1.30997
O         25.03834        18.46711         0.43515
O         27.41631        33.27138         0.50870
O         17.98570        20.18900        -2.14239
O         30.10300        31.50672        -2.58472
O         24.76850        34.02463        -2.17893
O         14.49961        22.90676        -0.70727
O          9.14440        22.78646        -1.58381
O         30.19437        18.34483         0.16758
O         21.90998        17.28707        -0.19723
O         32.92869        29.33967        -2.42032
O         35.75488        20.52568        -2.01148
O         14.88836        23.27934         2.83380
O         20.52292        10.42536        -1.71725
O         28.02595        15.25669        -2.47464
O         30.46083        11.53441        -1.00099
O         11.12434        26.95452         1.95090
O         34.57122        15.87320        -1.21001
O         27.78639        32.17236        -2.83812
H         27.57464        31.34229        -3.31248
O         29.06883        10.95376         2.90742
H         28.17889        10.81193         3.29711
O         21.78173        27.59235        -1.76545
H         21.79830        26.85428        -2.44139
O         30.99271         9.44977         0.19070
H         30.70247         9.78914        -0.69343
O         29.86542        16.73373        -3.02862
H         29.87969        15.80651        -3.35316
O         15.38401        16.39553        -3.03540
H         16.16714        16.00969        -3.51986
O         23.63569        19.13573        -2.83224
H         22.89500        19.66144        -3.21303
O         25.53932        24.39491         1.77548
H         25.82468        25.21672         2.23796
O         33.06471        20.61615        -2.79981
H         33.62827        19.98038        -3.29757
O         11.04051        29.54426        -0.63681
H         10.89791        30.51251        -0.65646
O         25.21966        31.58356        -2.82908
H         24.75954        32.38653        -3.17347
O          9.54287        27.40031        -1.37780
H         10.41494        27.28425        -1.80683
O         23.28696        26.90819         1.49367
H         23.48186        27.69636         2.07371
O         12.98061        15.84261        -2.56239
H         13.70786        16.28643        -3.06693
O         30.99520        27.96453         0.92617
H         31.07230        27.11109         1.40732
O         32.52044        20.80675         0.79287
H         31.84254        21.29953         1.31997
O         17.01406        13.49473        -3.03518
H         16.25123        12.91921        -3.28665
O         31.40050        34.11827        -2.16300
H         32.04840        33.45129        -2.50792
O         14.27041        26.95308        -1.02393
H         15.07792        26.70782        -1.53113
O         18.05316        15.01081         0.14921
H         18.95236        14.97131         0.54011
O         16.62536        12.81307         0.58301
H         17.14407        13.63057         0.79701
O         34.84037        22.84909        -2.81425
H         34.22029        22.22721        -3.26163
O         15.87318        29.46049        -0.56532
H         16.45888        28.88275        -1.10790
O         31.88589        25.21482        -2.57520
H         32.68710        25.57605        -3.01234
O         32.76525        31.83464        -2.39182
H         33.11039        31.04735        -2.88647
O          9.55825        21.10797         1.70115
H         10.11871        21.85707         2.00554
O         18.20391        33.91695        -0.65666
H         18.49845        33.26266        -1.33537
O         26.91415        13.08477        -2.55819
H         26.88257        13.83759        -3.19145
O         14.62970        31.40342        -0.01262
H         13.92206        30.87623        -0.43808
O         29.94991        13.44673        -2.45253
H         29.25171        12.86568        -2.82683
O         17.88883        15.80272        -3.41801
H         18.32969        16.52983        -3.91684
O         24.61449        31.52542         0.75507
H         24.25039        30.81799         1.37471
O         23.97349        29.28065        -2.07895
H         23.31612        29.92519        -2.44066
O         10.41874        16.42884        -2.59418
H         11.26943        16.13887        -3.01987
O         16.98990        22.20147         2.12331
H         17.39043        22.97597         2.56908
O         15.17288        29.41584         3.02277
H         14.75599        28.59991         3.38651
O         19.26144        10.85562         1.64392
H         18.38738        10.71114         2.08335
O         38.13415        21.13005        -1.21656
H         37.62227        20.96776        -2.04353
O         10.61473        19.20745        -2.20772
H         10.44541        18.31148        -2.60383
O         14.86524        16.34963         0.60490
H         15.16564        17.15235         1.09241
O         29.26461         7.72885         1.05544
H         30.07353         8.02131         0.56021
O         16.66271         9.69730         2.10653
H         16.49976         9.18214         2.92538
O         19.45419        33.36747         2.73026
H         18.97644        33.91186         3.40257
O         33.28456        24.84887         0.78949
H         34.00312        24.28308         1.15480
O         18.82603        28.91487         3.06273
H         19.43096        28.16921         3.28054
O         28.99283        34.65642        -2.39975
H         29.86580        34.69125        -2.86321
O         24.44870        26.80024        -1.98899
H         23.68141        26.20852        -2.25610
O         13.13341        14.50299         0.85337
H         13.88874        15.03563         1.20365
O         19.85181        20.34319         1.03624
H         19.11688        20.61529         1.62775
O         22.60774        31.59253        -2.32809
H         21.66196        31.85769        -2.44233
H          7.28853        18.47511        -0.30418
H          6.09156        20.67340        -0.08780
H          6.13742        23.11324        -0.23373
H          7.53258        25.36294        -0.48021
H          9.72050        14.13909        -1.20482
H          8.52185        16.30946        -0.32164
H          8.69360        27.34028         0.48884
H         10.02168        29.51618         1.19286
H         12.09825         9.98763        -0.10855
H         10.87942        11.97409        -0.85177
H         11.25713        31.55685         1.70346
H         12.55739        33.67460         2.27380
H         15.45084         7.01023         1.59393
H         13.38756         7.81019         0.57095
H         15.78368        37.09804         1.36768
H         13.71554        35.80515         1.73887
H         17.95304         6.93511         1.59303
H         18.52682        37.15812         1.56987
H         20.40492         7.08482         2.08337
H         20.77707        37.07716         0.81054
H         22.81969         7.30232         2.57023
H         23.10132        37.06468         0.45113
H         25.19647         7.40800         3.00895
H         25.50361        37.12006         0.10951
H         27.65266         7.35024         3.31214
H         27.90176        37.01541         0.48947
H         30.15183         7.49454         3.83228
H         30.22012        36.87371         1.05242
H         32.16405         8.88495         3.89793
H         33.35724        10.92121         3.26461
H         33.22645        33.35689         1.36920
H         32.18284        35.43557         1.45487
H         34.62639        12.79748         2.69630
H         35.84207        14.82393         2.44051
H         36.42595        29.61579         0.30363
H         34.79454        31.52870         0.92759
H         36.99082        16.99072         2.42169
H         38.17353        19.08330         2.45900
H         38.97042        25.48021         0.63328
H         37.77484        27.57532         0.13953
H         39.66919        21.08737         2.30317
H         39.94230        23.43324         1.61751
