         621
 CSIRO Nanostructure Databank - Neutral Graphene Oxide Data Set
C          6.62713        31.60387         2.17921
C          6.80753        32.90640         2.56343
C          8.88552        27.39685         0.92207
C          8.63726        28.72190         0.63896
C          7.60536        29.48076         1.31729
C          8.64208        31.64619         0.72607
C          7.56466        30.86222         1.35691
C          8.94856        33.00827         1.32522
C          7.97695        33.69700         2.22316
C          9.14432        35.96950         2.12215
C          8.06101        35.04349         2.50147
C          8.89401        37.28106         1.75273
C         11.39861        23.16600         0.48906
C         11.24258        24.53778         0.13688
C         10.17118        25.29281         0.69309
C         10.87975        27.25730        -0.56367
C          9.98871        26.64937         0.34377
C         10.72192        28.66630        -0.86752
C          9.57142        29.42259        -0.27224
C         11.05818        31.49428        -0.13916
C          9.70865        30.91916        -0.04837
C         11.35747        32.63597         0.69762
C         10.37495        33.28645         1.42832
C         11.51489        36.14646         1.37013
C         10.50058        35.47225         2.01843
C         11.34869        37.58167         1.15382
C          9.98312        38.20622         1.39774
C         10.81769        40.30220         0.32305
C          9.77082        39.58058         0.89126
C         10.81422        41.71286         0.20304
C         13.26857        18.59506         0.44749
C         12.93828        19.85614        -0.08253
C         12.32057        20.96878         0.48121
C         13.33447        22.84911        -1.00965
C         12.34416        22.29737        -0.07627
C         13.19698        24.28204        -1.36006
C         12.13256        25.10172        -0.79487
C         13.26890        27.25816        -1.43635
C         11.93946        26.49760        -1.34065
C         13.29358        28.66530        -1.35645
C         12.02866        29.43448        -1.23448
C         13.39845        31.46288        -0.84158
C         12.12207        30.81753        -0.74151
C         13.55826        32.80160        -0.34255
C         12.67216        33.21403         0.61422
C         13.50932        36.01040        -0.13377
C         12.72488        35.51027         0.86673
C         13.14677        37.38419        -0.70038
C         12.44751        38.26170         0.36522
C         13.09497        40.30670        -0.94250
C         11.99570        39.58102        -0.24274
C         13.09951        41.83016        -0.99317
C         11.99498        42.44275        -0.13199
C         13.47744        44.39760         0.47352
C         12.14307        43.72986         0.33854
C         13.36965        45.88641         0.45187
C         15.75904        14.40819         0.54651
C         15.77588        15.79120         0.19586
C         14.57600        16.53833         0.31386
C         15.66981        18.67502        -0.32827
C         14.47350        17.92600         0.05704
C         15.69507        20.03749        -0.78429
C         14.56548        20.74536        -1.20713
C         15.73547        22.83954        -1.89629
C         14.49417        22.16439        -1.41289
C         15.77383        24.34717        -1.98573
C         14.47432        25.08515        -1.82641
C         15.72836        27.23716        -1.56542
C         14.48560        26.54959        -1.58076
C         15.74789        28.64525        -1.52405
C         14.52942        29.36775        -1.43626
C         15.73358        31.60357        -1.55848
C         14.54517        30.81035        -1.30474
C         15.75260        32.98054        -1.51043
C         14.54581        33.68311        -1.00796
C         15.62408        35.93707        -1.57631
C         14.45222        35.18713        -0.97649
C         15.59718        37.44044        -1.58272
C         14.38066        38.17558        -1.14388
C         15.54910        40.28440        -1.67352
C         14.36418        39.53745        -1.17835
C         15.55477        41.77615        -1.54309
C         14.50926        42.33374        -0.58292
C         15.61062        44.58544        -0.82327
C         14.55881        43.83085        -0.41443
C         15.57669        46.06508        -0.65245
C         14.42163        46.67875         0.03559
C         15.68977        48.81461         0.40106
C         14.49480        48.04907         0.39490
C         15.61586        50.06138         1.12575
C         18.18071        10.27325         2.00842
C         18.00843        11.73711         2.12912
C         16.78702        12.32933         1.52940
C         18.21608        13.97878         0.55157
C         16.86616        13.55667         0.88517
C         18.25152        15.98475        -0.18378
C         16.96464        16.59122        -0.05834
C         18.19719        18.73759        -0.08656
C         16.91431        17.99404        -0.14530
C         18.22506        20.19454        -0.50283
C         16.97827        20.71873        -1.10059
C         18.32619        22.87442        -1.62493
C         17.04094        22.10798        -1.69198
C         18.28631        24.33350        -1.65013
C         17.05717        25.02563        -1.71475
C         18.31669        27.22704        -1.43007
C         17.00147        26.47008        -1.43873
C         18.33308        28.71523        -1.63715
C         17.01647        29.42828        -1.60693
C         18.17563        31.61215        -2.35356
C         16.91225        30.85864        -2.06703
C         18.21220        33.07196        -2.10906
C         16.86809        33.77860        -2.17898
C         18.10133        35.91727        -1.74073
C         16.92809        35.22364        -1.71951
C         18.11790        37.38208        -1.44893
C         16.88585        38.14183        -1.54558
C         18.16143        40.37228        -1.74793
C         16.90058        39.57850        -1.78516
C         18.14661        41.79294        -1.77847
C         16.84306        42.51974        -1.75862
C         18.13815        44.69427        -1.29865
C         16.82511        43.98866        -1.45297
C         18.12618        46.00305        -0.57119
C         16.87974        46.84245        -0.61410
C         18.21498        48.81399         0.08302
C         16.92137        48.21116        -0.04451
C         18.33994        50.21780         0.23828
C         16.55265        51.08773         0.98245
C         18.21127        52.78164         1.79471
C         16.91803        52.15022         1.82249
C         18.29279        54.06138         2.38022
C         20.83722         6.78162        -0.03883
C         20.76981         7.86114         0.81421
C         19.48260         8.19515         1.54647
C         20.63625        10.33375         2.39675
C         19.38701         9.65291         1.96774
C         20.59199        11.88024         2.51810
C         19.28854        12.57477         2.21272
C         20.64510        14.40640         0.94082
C         19.35072        13.73267         1.27587
C         20.70653        15.81990         0.32279
C         19.46501        16.59641         0.10209
C         20.66247        18.65785        -0.42177
C         19.48620        18.01834        -0.01590
C         20.52268        19.86260        -1.16602
C         19.46324        20.75719        -1.08185
C         20.84696        22.83398        -1.66895
C         19.51656        22.14092        -1.51706
C         20.81594        24.35467        -1.66509
C         19.52699        25.07008        -1.58363
C         20.78589        27.20798        -1.71820
C         19.56912        26.48086        -1.63778
C         20.88956        28.59050        -2.32051
C         19.53271        29.34879        -2.30453
C         20.75516        31.61724        -2.46555
C         19.46815        30.83901        -2.50904
C         20.68949        33.06953        -2.14517
C         19.39962        33.76129        -2.02957
C         20.55028        35.95120        -1.95950
C         19.38304        35.23121        -1.91440
C         20.56786        37.45105        -2.20042
C         19.40188        38.17814        -1.57083
C         20.62752        40.34526        -1.80813
C         19.38201        39.65683        -1.73562
C         20.64225        41.78301        -1.69309
C         19.38074        42.51647        -1.63087
C         20.62308        44.62303        -1.14229
C         19.40476        43.91577        -1.34408
C         20.67997        45.95606        -0.69253
C         19.44422        46.64343        -0.26430
C         20.68308        48.76718         0.09657
C         19.45235        48.09364        -0.01015
C         20.71477        50.13154         0.57553
C         19.49713        50.84843         0.75705
C         20.69550        52.73031         1.77309
C         19.44894        52.14895         1.36883
C         20.72799        53.99242         2.43254
C         19.52044        54.70672         2.63349
C         20.71791        56.80451         3.24856
C         19.55659        56.10171         2.96439
C         20.67969        58.24484         3.10509
C         23.39110         4.79753        -1.96040
C         22.15745         5.23970        -1.47027
C         23.29152         7.00450        -0.21127
C         22.08709         6.34296        -0.59179
C         23.23942         8.12389         0.67017
C         21.96830         8.57754         1.14719
C         23.14038        10.18691         2.50722
C         21.92339         9.67187         2.04784
C         23.05121        12.26866         2.96863
C         21.80963        12.73934         2.42859
C         22.89350        14.89441         2.06017
C         21.80322        13.96646         1.76113
C         22.94292        16.29981         1.52155
C         21.97176        16.66665         0.43813
C         23.20831        18.96060         0.13012
C         22.01123        18.06087        -0.13114
C         23.39791        20.15982        -0.50105
C         22.40192        20.87846        -1.30302
C         23.18518        23.05404        -0.55530
C         22.12943        22.20861        -1.17480
C         23.20840        24.48786        -0.90518
C         22.03872        25.13027        -1.31678
C         23.23324        27.30878        -1.40078
C         22.01572        26.55528        -1.46759
C         23.27307        28.78222        -1.44043
C         22.08791        29.41333        -1.83513
C         23.21393        31.66038        -1.74858
C         22.05487        30.86058        -2.13530
C         23.15509        33.09127        -1.86603
C         21.86684        33.76318        -1.95302
C         23.09184        36.03170        -1.73939
C         21.82330        35.23315        -1.75091
C         23.06628        37.48674        -2.02124
C         21.87761        38.18149        -1.95791
C         23.10276        40.33470        -1.90778
C         21.86258        39.62618        -1.91994
C         23.11870        41.75297        -1.71888
C         21.87486        42.45726        -1.61309
C         23.10804        44.53165        -0.89553
C         21.90160        43.97035        -1.61568
C         23.17022        45.98795        -0.68619
C         21.91275        46.69991        -0.58114
C         23.16865        48.81414        -0.21966
C         21.90250        48.05661        -0.20080
C         23.19072        50.20987         0.33469
C         21.93590        50.79143         0.87558
C         23.19920        52.58894         2.04945
C         21.92669        52.03699         1.51258
C         23.25397        53.96587         2.57563
C         21.97187        54.56609         2.97418
C         23.31485        56.66510         3.57889
C         21.97117        56.02570         3.50357
C         23.41991        57.97268         4.08146
C         21.58684        59.08038         3.72748
C         23.21055        60.93970         3.68474
C         21.94053        60.43857         3.44839
C         24.57451         5.42989        -1.59216
C         25.74260         7.20945        -0.32586
C         24.55397         6.54518        -0.71297
C         25.70851         8.33878         0.51987
C         24.44269         8.80639         1.02419
C         25.56786        10.76841         2.08191
C         24.40184         9.92762         1.90086
C         25.51955        12.14757         2.47332
C         24.28387        12.86203         2.68668
C         25.45807        15.10237         2.50263
C         24.22716        14.31349         2.58797
C         25.41703        16.51357         2.26802
C         24.14646        17.17129         1.80082
C         25.63192        19.11006         0.98469
C         24.22089        18.61146         1.24108
C         25.76236        20.37502         0.41539
C         24.68611        20.93682        -0.45824
C         25.74470        23.18798        -0.14539
C         24.48229        22.40889        -0.18570
C         25.67807        24.61987        -0.36674
C         24.44328        25.19331        -0.87518
C         25.91136        27.67434        -0.54002
C         24.39874        26.52564        -1.35751
C         25.67875        29.10218        -0.45197
C         24.46082        29.58960        -1.04916
C         25.56312        31.78149        -1.09636
C         24.38080        31.00637        -1.27228
C         25.61293        33.10519        -1.75690
C         24.34057        33.82909        -1.82285
C         25.67924        36.02041        -1.92773
C         24.39097        35.29219        -1.74028
C         25.66369        37.44621        -2.35922
C         24.30810        38.20251        -2.35200
C         25.56504        40.34707        -2.15781
C         24.34243        39.65679        -2.13559
C         25.60221        41.74008        -1.84998
C         24.38389        42.41690        -1.63039
C         25.65767        44.53707        -0.98547
C         24.41023        43.78233        -1.06291
C         25.63275        45.82698        -0.49310
C         24.39729        46.56835        -0.38134
C         25.73602        48.68325         0.20005
C         24.47825        48.04328        -0.27244
C         25.76247        50.03238         0.61814
C         24.50403        50.81064         0.71421
C         25.75975        52.67539         1.84687
C         24.49828        51.92227         1.71169
C         25.72840        53.99222         2.35088
C         24.47477        54.63348         2.71694
C         25.76822        56.69331         3.27732
C         24.50944        55.99922         3.18826
C         25.88063        58.13401         3.75945
C         24.54420        58.81929         3.92120
C         24.41375        60.20725         3.90917
C         26.88395         9.02207         0.91163
C         28.02570        10.98126         1.83575
C         26.83432        10.24249         1.62428
C         27.99985        12.32160         2.27264
C         26.70878        12.94503         2.46631
C         27.88294        15.09409         2.94478
C         26.65840        14.36819         2.61484
C         27.83370        16.64269         2.83669
C         26.62562        17.23778         2.25870
C         28.00377        19.21999         1.62660
C         26.74990        18.53066         1.63900
C         28.08083        20.54953         1.14075
C         26.93476        21.15305         0.57072
C         28.18207        23.38415         0.30651
C         26.91665        22.56270         0.22702
C         27.91510        24.81295         0.79430
C         26.68823        25.42016         0.19494
C         28.13964        27.97570         0.98162
C         26.46226        26.82208         0.38577
C         28.05760        29.30730         0.46903
C         26.78151        29.92250         0.00770
C         27.74563        32.27199        -0.23382
C         26.67513        31.30710        -0.38943
C         28.03454        33.27325        -1.12361
C         26.92725        33.81939        -1.93953
C         28.13357        36.01587        -1.96927
C         26.97341        35.30745        -2.08076
C         28.11365        37.50948        -1.65683
C         26.88744        38.18559        -2.21472
C         28.14301        40.38482        -2.34127
C         26.84204        39.63403        -2.42938
C         28.09448        41.81887        -1.97045
C         26.88736        42.44304        -1.77040
C         28.17627        44.55026        -1.20874
C         26.86899        43.96001        -1.69278
C         28.13080        45.94509        -0.73551
C         26.91613        46.43669         0.02194
C         28.14479        48.57699         0.53555
C         26.93010        47.94249         0.19815
C         28.18732        49.94228         0.90245
C         26.96877        50.66353         0.99705
C         28.18920        52.74325         1.66367
C         26.97022        52.04344         1.48563
C         28.16890        54.05380         2.13391
C         26.95646        54.70039         2.47262
C         26.94194        56.05400         2.93357
C         29.19711        13.06867         2.41068
C         30.35805        15.17872         2.96588
C         29.20153        14.43822         2.79079
C         30.32224        16.64167         3.35902
C         29.12418        17.33158         2.73499
C         30.45845        19.29818         2.09876
C         29.19301        18.58858         2.17095
C         30.50496        20.60491         1.64869
C         29.31178        21.31836         1.25205
C         30.49651        23.50455         1.25062
C         29.32178        22.69153         1.01356
C         30.45011        24.88390         1.24553
C         29.15776        25.64281         1.17295
C         30.51472        27.69394         0.53526
C         29.26398        27.12225         0.92324
C         30.55417        29.08471         0.21377
C         29.36678        29.87949         0.26358
C         30.67531        31.89261        -0.40370
C         29.58079        31.27923         0.19496
C         30.64959        33.26573        -0.87826
C         29.37401        33.85574        -1.34786
C         30.68971        36.01938        -1.81437
C         29.42260        35.28221        -1.91645
C         30.60917        37.41368        -2.41560
C         29.40003        38.24636        -2.01181
C         30.68845        40.33813        -2.37465
C         29.40902        39.59232        -2.20480
C         30.67000        41.85705        -2.24086
C         29.34864        42.65431        -2.24386
C         30.64933        44.57033        -1.10875
C         29.37677        43.93666        -1.43956
C         30.67995        45.85820        -0.55971
C         29.42976        46.61126        -0.40127
C         30.71217        48.48280         0.78931
C         29.39384        47.78462         0.51927
C         30.64762        49.92809         1.05206
C         29.46634        50.60570         1.13062
C         29.51226        52.10885         1.31767
C         31.61414        17.33323         3.03381
C         32.94009        19.29492         2.42698
C         31.67915        18.60480         2.51417
C         33.02380        20.62572         2.03964
C         31.79818        21.29995         1.53946
C         32.98491        23.49502         2.02446
C         31.79606        22.79049         1.38194
C         33.01822        24.97575         1.65081
C         31.71318        25.66616         1.33805
C         32.98886        27.60619         0.43810
C         31.75564        26.98600         0.67354
C         33.01769        28.97936        -0.00179
C         31.80548        29.72068        -0.07903
C         33.08897        31.74007        -0.72366
C         31.86469        31.09509        -0.47921
C         33.15118        33.17485        -1.19881
C         31.82764        33.90864        -1.21882
C         33.18046        35.97548        -1.63540
C         31.86965        35.31214        -1.60355
C         33.22210        37.37835        -2.12748
C         31.94646        38.15305        -2.36044
C         33.14729        40.32119        -1.87980
C         31.95713        39.61497        -2.14497
C         33.11234        41.75706        -1.67080
C         31.90877        42.49942        -1.72832
C         33.11672        44.51297        -0.94501
C         31.88245        43.84775        -1.27909
C         33.12369        45.84731        -0.48520
C         31.91534        46.53306        -0.22879
C         31.92416        47.84824         0.27577
C         34.24596        21.34164         1.97088
C         35.45042        23.42133         1.47808
C         34.27368        22.73894         1.76087
C         35.47966        24.82024         1.15412
C         34.26441        25.57601         1.14107
C         35.47838        27.49861         0.26340
C         34.24930        26.89507         0.64053
C         35.47897        28.84535        -0.29067
C         34.24289        29.63056        -0.27683
C         35.54152        31.75478        -0.46509
C         34.29160        31.02200        -0.55390
C         35.47745        33.23025        -0.08200
C         34.15408        34.02425        -0.39720
C         35.59358        36.04322        -1.05345
C         34.31834        35.36448        -1.12202
C         35.71477        37.45714        -1.45163
C         34.47427        38.17920        -1.91756
C         35.59284        40.31452        -1.36406
C         34.39672        39.63001        -1.72452
C         35.55465        41.71215        -1.22085
C         34.34097        42.43028        -1.33181
C         34.33154        43.80562        -1.04390
C         36.69019        25.45147         0.82249
C         37.96420        27.50979         0.32390
C         36.72489        26.81539         0.43522
C         38.04412        28.91321         0.15516
C         36.82478        29.62391        -0.30548
C         37.93431        31.82313         0.20690
C         36.73152        31.07819        -0.22811
C         38.02394        33.22605        -0.29525
C         36.74032        33.93966        -0.54569
C         38.01142        36.11148        -0.46897
C         36.75800        35.40777        -0.64953
C         38.02214        37.50501        -0.52948
C         36.86650        38.23388        -0.94565
C         36.80600        39.61336        -1.02658
C         39.23228        29.62402         0.33904
C         40.48479        31.88199         0.30138
C         39.24535        31.08372         0.42685
C         40.47633        33.23397         0.15150
C         39.26414        34.00017        -0.07839
C         39.22249        35.37143        -0.16953
O         23.84810        51.59456         2.98070
O         19.31057        29.91417        -3.62517
O         26.97294        27.42728         1.55059
O         11.02805        29.09044        -2.22370
O         21.54265        20.10956        -2.08490
O         28.71870        46.90302        -1.66200
O         30.82331        41.21722        -3.55276
O         22.40344        35.70162        -0.46766
O         15.29386        36.64007        -2.81751
O         32.33663        25.77448         2.68711
O         17.89755        29.40145        -0.41677
O         28.19418        25.15168         2.16957
O         38.38128        31.58885         1.55425
O         23.09558        11.02996         3.62180
O         17.23531        31.20815        -3.44095
O         22.50584        16.90013        -0.90598
O         23.91364        48.69296        -1.46689
O         15.83296        42.35688        -2.83359
O         24.91322        37.71106        -3.60009
O         17.31210        51.01798        -0.21920
O         30.02432        47.61520         1.80896
O         18.98287        37.72620        -0.26210
O         28.62879        32.08089         0.82845
O         22.96870        17.18166         2.69096
O         17.41715        44.74296        -2.56565
O         11.07981        38.25506         2.43270
O         25.59748        27.10874        -1.79102
O         20.97897        23.56960        -2.92151
O         18.15822        19.86902         0.90311
O         13.38571        20.05334        -1.41060
O         20.92175        14.61986        -0.48241
O         18.37840        12.51601         3.33977
O         10.75165        34.15289         2.45211
O         17.68543        26.83192        -0.17168
O         23.87483        51.16913        -0.55794
O         32.06450        21.94892         0.22408
O         23.63303        43.77270         0.21925
O         21.64248        31.21942        -3.54272
O         13.78272        34.45307        -2.06006
O         21.84409        54.89660         4.40699
O         36.27135        29.02268        -1.51138
O         23.23138        14.88354         3.47948
O         32.76249        37.66288        -3.49644
O         22.32274        58.48608         4.77762
O         26.39194        33.05286        -3.05456
O         18.29709        14.67864        -0.65686
O         15.72335        23.50103        -3.19040
O         27.68136        15.94145         4.11841
O         29.48522        34.13031        -2.80212
O          8.33416        32.87536        -0.00325
O         35.54339        33.01153         1.31096
O         37.46220        33.31382        -1.65782
O         11.99857        39.69669        -1.70407
O         13.48548        24.63087        -2.75603
O         17.14172        20.91885        -2.54999
O         27.53416        40.12912        -3.66449
O         20.54123        11.01510         3.67572
O         13.02110        34.27345         1.45205
O         35.49678        37.73018        -2.88002
O          9.05198        30.36936        -1.23858
O         23.51636        22.75408         0.85489
O         16.07117        46.78585        -1.82338
O         18.66270        45.88923         0.77802
O         25.19305        35.80074        -0.55318
O         16.02643        39.85728        -2.96558
O         30.18211        16.70969         4.81689
H         29.27282        16.38124         5.02459
O         18.34440         7.80505         0.78039
H         18.36944         8.27614        -0.07719
O         16.52338        33.84966        -3.59052
H         16.54930        32.92625        -3.94138
O         14.82931        41.72705         0.69611
H         14.55546        42.36320         1.40564
O         23.82108        19.48840         2.33612
H         23.17971        18.99369         2.89824
O         30.31175        37.14914        -3.81738
H         31.17919        37.01895        -4.27116
O         26.72600        44.40999        -3.07503
H         27.52229        44.07804        -3.56375
O         28.02118        37.58520        -0.18547
H         27.21953        37.08830         0.09287
O         26.75268        58.88053         2.90530
H         26.37463        58.88542         2.00250
O         12.25385        37.15510        -1.79706
H         12.74478        36.66147        -2.49039
O         32.77286        23.39100         3.45488
H         32.43397        24.26801         3.75880
O         13.94444        44.04371         1.86873
H         13.23394        44.31495         2.48989
O         12.86065        42.24615        -2.34578
H         12.22650        41.61020        -2.74387
O         28.65031        23.59210        -1.07078
H         28.84196        22.71395        -1.46300
O         20.33972        37.61893        -3.63724
H         21.11055        37.26361        -4.12805
O         13.47963        38.57328         1.33708
H         13.02363        38.82300         2.17295
O         11.44973        26.37116        -2.71133
H         10.58349        25.91441        -2.68346
O         33.65230        33.13903        -2.56178
H         32.96596        32.74119        -3.13708
O         29.98158        52.72164         0.10350
H         30.75665        52.21723        -0.21811
O         22.08130        44.37781        -3.00847
H         21.28917        44.09977        -3.51545
O         33.54327        34.35228         0.85857
H         34.12663        33.90692         1.54328
O         29.15777        43.11658        -3.61746
H         29.43409        42.37189        -4.20506
O         21.20373        28.31965        -3.71500
H         21.10564        29.17650        -4.19707
O         27.08180        45.87512         1.36539
H         26.26493        46.04828         1.87896
O         25.20378        20.89297        -1.82859
H         25.27709        19.95430        -2.10178
H          5.73328        31.06842         2.53340
H          6.03596        33.38547         3.18510
H          8.23296        26.86675         1.63222
H          6.86975        28.91250         1.90779
H          7.19380        35.50412         3.00349
H          7.85652        37.63831         1.67272
H         10.69590        22.75189         1.22730
H          9.47648        24.80716         1.39133
H          8.85499        40.10970         1.19645
H          9.98302        42.26978         0.66485
H         12.65089        18.14166         1.23661
H         11.76986        20.84178         1.42494
H         11.30877        44.18987         0.89485
H         12.52385        46.34740         0.98609
H         14.76336        14.00481         0.79464
H         13.66509        16.01232         0.63650
H         13.60267        48.49793         0.85760
H         14.80527        50.17245         1.86070
H         17.29819         9.69925         1.68011
H         15.81883        11.83535         1.70145
H         16.20321        52.50489         2.57989
H         17.36008        54.58221         2.64269
H         19.92102         6.22046        -0.27615
H         19.46420         7.56882         2.48289
H         18.61642        56.66489         2.86412
H         19.92032        58.67170         2.43251
H         23.42458         3.93688        -2.64298
H         21.23225         4.72448        -1.76551
H         23.35148        62.01713         3.50447
H         21.18979        61.09878         2.98890
H         25.53750         5.07208        -1.98369
H         26.71082         6.84497        -0.70031
H         26.38047        58.11691         4.76993
H         25.34703        60.78920         3.85537
H         27.86036         8.64654         0.57051
H         28.98913        10.52421         1.56565
H         29.11492        54.60301         2.24735
H         27.89113        56.60602         2.99559
H         30.15868        12.56328         2.23918
H         31.33455        14.67999         2.87299
H         31.59853        50.47969         1.13360
H         30.25029        52.34256         2.14391
H         32.54262        16.83966         3.36002
H         33.84638        18.76881         2.76313
H         34.08402        46.33059        -0.25475
H         32.88214        48.38277         0.36073
H         35.19576        20.79111         2.05618
H         36.39141        22.85507         1.40143
H         36.46981        42.25460        -0.94169
H         35.27568        44.31470        -0.80193
H         37.63108        24.88744         0.89838
H         38.88792        26.95570         0.55051
H         38.94417        38.05701        -0.29293
H         37.68071        40.21434        -0.73624
H         40.17515        29.07318         0.48282
H         41.44510        31.35039         0.38497
H         41.43277        33.77877         0.14124
H         40.14693        35.95081        -0.02048
