         349
 CSIRO Nanostructure Databank - Neutral Graphene Oxide Data Set
C          1.29373         3.67779         1.02625
C          0.07941         4.41342         1.09755
C          1.01857         6.27872        -0.22555
C         -0.05499         5.67519         0.57540
C          1.02893         7.76985        -0.63042
C         -0.18203         8.51761        -0.14380
C          1.08879        10.60210         0.03412
C         -0.14659         9.84303         0.09304
C          1.09017        12.00054         0.15385
C         -0.13761        12.79204         0.21560
C          1.08291        14.80549         0.94180
C         -0.16598        14.10048         0.56125
C          1.15752        16.25645         1.34615
C         -0.03018        17.15274         1.38490
C          1.25433        18.91404         0.21668
C          0.01505        18.41599         0.92784
C          1.33073        20.39548        -0.09664
C          0.27084        20.97492        -0.80931
C          1.45732        23.09769        -0.90570
C          0.33539        22.31068        -1.19545
C          1.43750        24.51659        -1.42747
C          0.18034        25.28829        -1.06225
C          1.37121        27.31579        -1.86607
C          0.14982        26.60278        -1.30135
C          1.34525        28.78578        -1.50557
C          3.70789         3.59260         0.50778
C          2.45166         4.24856         0.49946
C          3.58876         6.35186        -0.32360
C          2.35155         5.56272        -0.17097
C          3.57627         7.75395        -0.33799
C          2.33398         8.47657        -0.27145
C          3.58011        10.58570         0.02478
C          2.33214         9.87236        -0.08858
C          3.55230        12.00776         0.18673
C          2.34273        12.69169         0.21969
C          3.57470        14.94739         0.18647
C          2.30584        14.17739         0.33303
C          3.69265        16.29395         0.75507
C          2.50863        16.97784         1.39512
C          3.67125        19.10248         0.96970
C          2.48513        18.38895         0.88999
C          3.52865        20.60961         1.10783
C          2.48501        21.16035         0.16364
C          3.77383        23.29376         0.05048
C          2.56241        22.51907        -0.23029
C          3.74553        24.73061        -0.25030
C          2.63558        25.34798        -1.00699
C          3.91664        27.45243        -1.58840
C          2.64575        26.66603        -1.32336
C          3.79543        28.93329        -1.20711
C          2.44866        29.48600        -1.16957
C          6.10884         3.52180         0.08023
C          4.87235         4.18520        -0.00754
C          6.15211         6.35812        -0.59376
C          4.83052         5.59206        -0.48098
C          6.08646         7.79977        -0.31175
C          4.84090         8.47798        -0.26633
C          6.06897        10.62259        -0.02934
C          4.81520         9.88810        -0.05119
C          6.07005        12.00236         0.02689
C          4.83917        12.76064         0.44583
C          6.10351        14.92329         0.20878
C          4.84327        14.18023        -0.17695
C          6.13889        16.26658         0.48309
C          4.89620        16.99008         0.76230
C          6.18155        19.09652         1.28438
C          4.90027        18.39160         1.09035
C          6.15874        20.60346         1.36486
C          4.87270        21.35332         1.14233
C          6.18858        23.46039         0.65584
C          4.92323        22.74917         0.62320
C          6.28458        24.74443         0.10556
C          5.05603        25.49980        -0.20781
C          6.35982        27.20085        -1.35696
C          5.14271        26.74501        -1.01068
C          6.24287        29.38928        -1.17180
C          4.85314        29.78607        -1.01933
C          8.54100         3.46811         0.13350
C          7.35964         4.15915        -0.08806
C          8.61337         6.30011         0.18914
C          7.48974         5.60239        -0.55203
C          8.50509         7.75636         0.41898
C          7.29998         8.50022        -0.01854
C          8.57814        10.62632         0.12170
C          7.32295         9.89480         0.01927
C          8.58471        12.02246        -0.05855
C          7.31174        12.77066        -0.33477
C          8.60385        14.89837        -0.06295
C          7.37228        14.13209         0.36015
C          8.56327        16.33684         0.01372
C          7.41252        16.97624         0.43496
C          8.68067        19.17568         0.50128
C          7.46096        18.39870         0.84859
C          8.59203        20.69433         0.49157
C          7.53319        21.28986         1.44568
C          8.74569        23.56455         1.08564
C          7.42349        22.82262         1.21861
C          8.72814        24.84927         0.34943
C          7.55908        25.39270        -0.10970
C          8.71131        27.64037        -0.50532
C          7.67871        26.61860        -0.99272
C          8.60525        29.06380        -0.43199
C          7.32263        29.78461        -0.43969
C         10.97817         3.44357         0.19498
C          9.80679         4.15225         0.22873
C         11.02317         6.28942         0.85121
C          9.76720         5.60814         0.44149
C         11.06771         7.79369         0.84427
C          9.77705         8.53608         0.68766
C         11.04572        10.64412         0.10953
C          9.81779         9.96021         0.31300
C         11.01988        12.04481        -0.16072
C          9.78521        12.74482        -0.16131
C         10.99699        14.90925        -0.79313
C          9.76324        14.19500        -0.30044
C         11.06136        16.36303        -0.39359
C          9.76091        17.12592        -0.45529
C         11.08771        19.24935        -0.11923
C          9.81985        18.53842         0.08479
C         11.13728        20.61604         0.13193
C          9.97049        21.31400         0.73254
C         11.41033        23.51444         0.96697
C         10.05710        22.77658         1.08229
C         11.27265        24.98772         0.60208
C          9.96546        25.65330         0.29756
C         11.15600        27.80074        -0.20235
C          9.95545        27.04815        -0.21844
C         11.06673        29.23540        -0.11992
C          9.76553        29.79861        -0.12339
C         13.36781         3.47701        -0.52200
C         12.35115         4.00220         0.45938
C         13.48830         6.32826         0.17224
C         12.34171         5.53307         0.64452
C         13.54922         7.71603         0.19221
C         12.36444         8.52101         0.58353
C         13.49379        10.55218        -0.25040
C         12.31798         9.93672         0.13882
C         13.44967        11.96809        -0.66735
C         12.24014        12.76771        -0.41965
C         13.52066        14.87661        -0.63458
C         12.27680        14.14768        -0.56423
C         13.52807        16.31234        -0.56431
C         12.27665        17.04720        -0.44967
C         13.54766        19.15558        -0.52830
C         12.29785        18.49491        -0.39884
C         13.57857        20.62770        -0.65706
C         12.32098        21.39756        -0.24670
C         13.63225        23.49099        -0.14375
C         12.45892        22.81618         0.12100
C         13.66199        24.95042        -0.09362
C         12.47436        25.67909         0.11684
C         13.60367        27.65252        -0.64688
C         12.40727        27.05347        -0.21588
C         13.50430        29.76378        -0.20459
C         12.19594        30.08467         0.19854
C         15.66654         3.59359        -1.44839
C         14.54640         4.13868        -0.75436
C         15.93343         6.16732        -0.00024
C         14.59295         5.64920        -0.60370
C         16.00717         7.65393        -0.55123
C         14.74660         8.42937        -0.20652
C         15.98793        10.56755        -0.57605
C         14.75456         9.82420        -0.34140
C         15.99653        11.94438        -0.70090
C         14.74715        12.71614        -0.86692
C         15.99811        14.87444        -0.72507
C         14.74748        14.18320        -0.71555
C         16.03424        16.29994        -0.54849
C         14.76742        17.01110        -0.55767
C         16.07266        19.14118        -0.77923
C         14.75519        18.43651        -0.56314
C         16.05700        20.62481        -0.52277
C         14.86844        21.33817        -0.55810
C         16.07938        23.46323        -0.48575
C         14.87587        22.78237        -0.44526
C         16.09582        24.92844        -0.55256
C         14.85434        25.65457        -0.35508
C         16.06643        27.85588        -0.17153
C         14.86843        27.06800        -0.44100
C         15.99017        29.31500         0.09571
C         14.76997        30.08422         0.30297
C         18.07710         3.86589        -2.17311
C         16.90751         4.28814        -1.46844
C         18.35407         5.79520        -0.23438
C         17.07159         5.36422        -0.54380
C         18.40911         7.96198         0.32983
C         17.27472         8.44705        -0.20641
C         18.55137        10.63042        -0.48688
C         17.29956         9.82192        -0.82754
C         18.46728        11.98998        -0.84490
C         17.22563        12.68738        -0.88853
C         18.91832        15.20238        -0.16056
C         17.16555        14.09276        -0.99157
C         18.40478        16.37108         0.37247
C         17.21365        17.01460        -0.12521
C         18.32592        19.17373         0.36801
C         17.19329        18.44045        -0.05132
C         18.43215        20.59402         0.10569
C         17.31051        21.29415        -0.35708
C         18.56129        23.46009        -0.03019
C         17.39616        22.75644        -0.70314
C         18.51101        24.91314         0.21193
C         17.36691        25.72324        -0.31291
C         18.47645        27.81236         0.55361
C         17.25370        27.15576         0.05108
C         18.45892        29.35007         0.53856
C         17.17981        30.00871         0.27341
C         19.27709         4.55663        -2.05691
C         20.59247         6.50122        -1.11390
C         19.44901         5.59010        -1.09353
C         20.70360         7.76041        -0.61529
C         19.78078         8.56399         0.31430
C         20.85474        10.77161         0.52426
C         19.74988        10.05287         0.00619
C         21.00468        12.15187         0.69729
C         20.23383        13.12019         0.02974
C         20.66390        15.07945         1.54874
C         19.97022        14.44612         0.44136
C         20.34868        16.32530         1.97015
C         19.13869        17.08051         1.48281
C         20.56982        19.20007         1.32411
C         19.40816        18.51001         1.03724
C         20.69639        20.57659         1.01433
C         19.65443        21.29224         0.43745
C         20.92889        23.48072         0.58776
C         19.69638        22.75703         0.33607
C         21.01086        24.83852         0.59054
C         19.79670        25.65730         0.58898
C         20.93432        27.88760         0.34578
C         19.79575        27.13715         0.42978
C         20.89834        29.32417         0.23032
C         19.73638        30.02646         0.28414
O         18.46493         6.66013         0.87761
O          5.43740         5.90736        -1.79374
O          7.07666        18.49902         2.27847
O         16.95240        25.42546        -1.68038
O         13.97927        12.21557        -2.02233
O         18.33687        14.75835        -1.37152
O         13.54684        28.87332        -1.30284
O          5.40948        21.15554         2.50464
O          2.59832        14.88096        -0.94414
O          4.12265        25.56075         0.91331
O         11.86083         8.33207         1.94923
O         12.67431        21.15614        -1.67276
O          1.44842        27.12037        -3.27024
O         10.57870        25.69941         1.67069
O         19.63775        12.68927        -1.17957
O         10.18070        21.75942         2.10486
O          6.47028        28.36963        -2.12843
O          1.14205        15.18047         2.35688
O          7.99871        23.57317         2.33576
O         14.52734         6.02984        -1.95308
O         11.79224         5.79489         1.98113
O         18.81013        25.25067         1.60195
O         18.36828        28.57069         1.79228
O          8.86596         8.19387         1.78398
O          1.47375         5.46038        -1.36289
O         11.99169        23.52229         2.29653
H         11.38822        24.04881         2.86652
O          7.30883        12.96699        -1.77511
H          6.43045        13.34721        -2.02974
O          7.96350         5.54824        -1.92994
H          7.16692         5.39628        -2.49074
O          4.91227        12.92400         1.89429
H          5.85035        13.15720         2.12209
O          8.14768        21.05694        -0.84597
H          8.74389        20.63616        -1.50171
O          8.24221        26.11975        -2.25699
H          8.05132        26.80012        -2.93976
O          1.47880        24.41508        -2.87359
H          1.44025        25.35353        -3.22885
O         12.74621         3.42921         1.74855
H         12.35539         4.01359         2.44021
O         10.85302        14.93884        -2.26250
H         10.07776        15.51856        -2.45961
O          4.86387        14.03518        -1.62071
H          3.94380        14.23162        -1.93448
O          9.51698        17.33177        -1.91192
H         10.30480        17.79552        -2.27262
O          2.91702        20.81357         2.41182
H          3.63708        20.72962         3.07922
O          2.84581        17.07591         2.81862
H          2.53668        16.23874         3.23629
O         20.35400         8.39260         1.63704
H         20.16302         7.46643         1.90438
O          7.50785        13.85277         1.80120
H          7.61386        14.71246         2.26347
O         15.87455         6.16415         1.41503
H         16.79307         6.20790         1.76525
O         17.67018        22.81441        -2.15220
H         17.51799        23.75385        -2.42214
O          1.24782        18.21947        -1.08292
H          1.96886        18.59407        -1.63194
O         16.36587        18.99194        -2.21533
H         17.11428        19.59052        -2.42681
O          0.95665         7.82746        -2.08399
H          1.33970         6.97767        -2.41333
O         16.05855         7.50883        -1.97492
H         15.43536         8.12831        -2.40840
O         17.35604         9.63981        -2.27923
H         17.32109        10.52853        -2.69354
O          4.05379        27.40502        -3.03000
H          3.12335        27.39953        -3.41175
O          7.97325        21.03023         2.77474
H          7.27209        21.34657         3.38386
O         18.21197        17.17986         2.61265
H         18.63993        17.72594         3.30495
H          1.33935         2.67270         1.46915
H         -0.76538         3.96945         1.64365
H         -0.97150         6.24497         0.78065
H         -1.15042         7.99745        -0.13663
H         -1.07659        10.36428         0.35973
H         -1.08798        12.29505        -0.02482
H         -1.12309        14.63723         0.62944
H         -0.94106        16.76294         1.86376
H         -0.86440        19.07187         1.00585
H         -0.61229        20.36906        -1.05585
H         -0.49900        22.75485        -1.75515
H         -0.69612        24.75471        -0.66281
H         -0.75818        27.19726        -1.11378
H          0.37184        29.30030        -1.53611
H          3.77681         2.58469         0.94451
H          2.35952        30.55845        -0.92881
H          6.11024         2.47584         0.42573
H          4.64411        30.81982        -0.69641
H          8.51749         2.38092         0.30502
H          7.23354        30.64580         0.23930
H         10.92291         2.35147         0.06298
H          9.66947        30.88489         0.02252
H         13.20538         2.46982        -0.93656
H         12.01097        30.97658         0.81684
H         15.63957         2.54473        -1.78539
H         14.86021        30.95230         0.97454
H         17.99440         3.04472        -2.89913
H         17.15343        31.10852         0.32344
H         20.11487         4.30466        -2.72333
H         21.44236         6.14616        -1.72206
H         21.66453         8.26898        -0.80153
H         21.60277        10.14847         1.03798
H         21.74301        12.48785         1.44098
H         21.51015        14.54620         2.00712
H         20.92406        16.77472         2.79403
H         21.41128        18.68968         1.81421
H         21.63033        21.08073         1.29627
H         21.86275        22.90487         0.65315
H         21.99364        25.33025         0.61865
H         21.91653        27.39489         0.31060
H         21.84748        29.84943         0.05371
H         19.72597        31.10876         0.08800
