         200
 CSIRO Nanostructure Databank - Neutral Graphene Oxide Data Set
C        -11.02692         0.55668        -0.22705
C         -9.82459         1.32596        -0.00567
C         -8.62149         0.60384         0.30828
C         -7.42777         1.39135         0.62973
C         -6.09506         0.64483         0.72751
C         -4.86512         1.38713         0.43249
C         -3.64980         0.66067         0.34652
C         -2.42519         1.36126         0.08053
C         -1.21245         0.62280        -0.02154
C         -0.01212         1.30867        -0.54850
C          1.31113         0.61951        -0.46775
C          2.55738         1.40901        -0.33178
C          3.76572         0.74095        -0.11236
C          5.00248         1.42750        -0.19718
C          6.23289         0.69596        -0.14052
C          7.44795         1.39748        -0.36972
C          8.60336         0.60004        -0.60705
C         10.39784         1.70859        -0.17272
C         11.41542         0.76143         0.25380
C         -9.82243         2.72187        -0.06194
C         -8.61900         3.49596         0.05860
C         -7.38699         2.81940         0.30152
C         -6.15604         3.50750         0.27201
C         -4.89586         2.79272         0.29437
C         -3.67367         3.50270         0.07606
C         -2.44182         2.79232        -0.06344
C         -1.24143         3.53273        -0.29233
C          0.00540         2.81620        -0.61679
C          1.29575         3.53564        -0.53674
C          2.53265         2.82924        -0.47538
C          3.77453         3.54590        -0.45459
C          5.01409         2.84037        -0.37632
C          6.26265         3.54437        -0.33131
C          7.50700         2.83441        -0.30794
C          8.72337         3.56207        -0.02248
C          9.98967         2.91665         0.33037
C         -8.61036         4.90454        -0.03737
C         -7.40257         5.63092         0.03183
C         -6.15907         4.92489         0.11225
C         -4.92594         5.63747         0.02210
C         -3.68460         4.92841        -0.02701
C         -2.47113         5.64939        -0.21136
C         -1.23024         4.93454        -0.33526
C          0.02134         5.65819        -0.46228
C          1.27482         4.94812        -0.48816
C          2.50857         5.68066        -0.51540
C          3.76886         4.97268        -0.51703
C          5.00356         5.66135        -0.43860
C          6.23220         4.96853        -0.28259
C          7.45177         5.68925        -0.03735
C          8.64312         4.95933         0.14344
C         -7.37898         7.06424         0.01536
C         -6.18531         7.76534        -0.01190
C         -4.93385         7.05433        -0.08270
C         -3.71255         7.75461        -0.27116
C         -2.50311         7.06486        -0.33846
C         -1.25126         7.82704        -0.71524
C          0.02047         7.06358        -0.44239
C          1.23500         7.77941        -0.33247
C          2.46718         7.09001        -0.43261
C          3.70864         7.87566        -0.51967
C          5.03604         7.12823        -0.52567
C          6.24918         7.83870        -0.07692
C          7.41200         7.11421         0.12462
C         -6.13736         9.22169         0.06366
C         -4.98818         9.91081        -0.09285
C         -3.71543         9.24292        -0.54443
C         -2.44875         9.89127        -0.04276
C         -1.25561         9.23066        -0.13618
C          0.00601         9.86272         0.14108
C          1.21944         9.20952        -0.04457
C          2.47037         9.89300         0.15976
C          3.68890         9.27750        -0.05562
C          4.95419         9.92977         0.15301
C          6.15249         9.25691         0.13858
C        -11.00646        -0.80641        -0.19819
C         -9.78604        -1.54357         0.03388
C         -8.57614        -0.79902         0.31333
C         -7.33576        -1.52055         0.49283
C         -6.10872        -0.81379         0.58048
C         -4.85799        -1.48012         0.60924
C         -3.66348        -0.75860         0.54863
C         -2.37324        -1.46111         0.88188
C         -1.16278        -0.74673         0.33127
C          0.02895        -1.47990         0.25845
C          1.29769        -0.80998        -0.07211
C          2.53052        -1.44112         0.46867
C          3.79958        -0.66743         0.33768
C          5.05247        -1.43167         0.27005
C          6.26213        -0.72257         0.04852
C          7.51690        -1.43871         0.09860
C          8.73275        -0.72424        -0.20257
C         10.02758        -1.37422        -0.01686
C         11.26074        -0.59453         0.15697
C         -9.75351        -2.92808        -0.04513
C         -8.53695        -3.66737         0.12099
C         -7.31633        -2.95269         0.40693
C         -6.10196        -3.67977         0.55219
C         -4.84507        -2.94906         0.96947
C         -3.57541        -3.65232         0.56127
C         -2.38455        -2.93891         0.53851
C         -1.14525        -3.62646         0.38225
C          0.07641        -2.89287         0.37552
C          1.32957        -3.59269         0.30494
C          2.56400        -2.90904         0.40268
C          3.80476        -3.58028         0.39375
C          5.02690        -2.82500         0.43475
C          6.30401        -3.53190         0.59116
C          7.55000        -2.79552         0.40456
C          8.84144        -3.54087         0.62301
C         10.05984        -2.71839         0.27955
C         -8.51286        -5.05856        -0.00436
C         -7.30214        -5.80545         0.14586
C         -6.07066        -5.07488         0.40683
C         -4.81607        -5.79801         0.38044
C         -3.58153        -5.06728         0.37371
C         -2.35378        -5.76060         0.19316
C         -1.12180        -5.04004         0.20839
C          0.11327        -5.72523         0.03560
C          1.34179        -5.00473         0.11669
C          2.59066        -5.65830        -0.07235
C          3.81832        -4.99633         0.12730
C          5.06713        -5.71279        -0.00869
C          6.32890        -5.04866         0.37496
C          7.62146        -5.66864        -0.02361
C          8.78496        -4.93613         0.01835
C         -7.28692        -7.19130         0.04905
C         -6.06885        -7.98271         0.43457
C         -4.79347        -7.20096         0.23131
C         -3.57559        -7.88864         0.00588
C         -2.34403        -7.17499         0.00139
C         -1.11174        -7.86513        -0.19843
C          0.11805        -7.14509        -0.18832
C          1.32954        -7.81925        -0.45908
C          2.56098        -7.03082        -0.59200
C          3.88086        -7.75377        -0.78937
C          5.11353        -7.04346        -0.40603
C          6.37050        -7.75745        -0.48456
C          7.57191        -7.06588        -0.38519
C         -6.00988        -9.36262        -0.16592
C         -4.84134        -9.97962        -0.43127
C         -3.55764        -9.30390        -0.28243
C         -2.35701        -9.96283        -0.49272
C         -1.09741        -9.27582        -0.43974
C          0.13677        -9.93313        -0.64407
C          1.36119        -9.22493        -0.66407
C          2.64016        -9.89645        -0.80599
C          3.84982        -9.23053        -0.79005
C          5.13850        -9.88592        -0.79942
C          6.31292        -9.18954        -0.70849
O          1.43313        -0.44828        -1.49375
O          9.66368         1.21885        -1.27527
O         -2.27053        -1.40534         2.34639
H         -3.03819        -1.91989         2.69656
O          4.45529         7.66812        -1.76549
O         -4.81377        -2.96179         2.45079
H         -5.63166        -2.51601         2.76145
O         -6.19357        -8.19663         1.89726
H         -6.18943        -7.30979         2.31734
O         -1.28803         7.98166        -2.16970
H         -2.07913         8.54352        -2.37440
O          3.10231        -0.82263         1.65787
O         -6.81550         1.08990         1.93361
O          8.95979        -3.77263         2.07841
H          8.09101        -4.15698         2.35859
O         -3.68837         9.39584        -2.02008
H         -4.49949         8.96800        -2.36941
O          6.32157        -4.49395         1.73513
O         -0.18008         1.98726        -1.83379
O          3.18527        -7.14730        -1.92984
H         12.13026        -1.20457         0.45447
H         12.36612         1.15052         0.65187
H         10.61100         3.42475         1.08376
H          9.55932         5.50992         0.40587
H          8.33301         7.63583         0.42712
H          7.07930         9.80799         0.35829
H          4.94625        11.00590         0.38267
H          2.44315        10.94482         0.48411
H          0.00411        10.91726         0.45833
H         -2.48330        10.93989         0.29199
H         -4.98844        11.00867        -0.01385
H         -7.07323         9.75246         0.29757
H         -8.33360         7.61143         0.03427
H         -9.56033         5.44493        -0.16332
H        -10.76768         3.25016        -0.25744
H        -11.96489         1.09413        -0.42990
H        -11.92976        -1.37634        -0.38013
H        -10.67853        -3.48050        -0.26975
H         -9.44789        -5.60012        -0.21176
H         -8.23105        -7.73018        -0.12497
H         -6.96127        -9.89977        -0.29990
H         -4.83415       -11.01483        -0.80633
H         -2.36325       -11.03905        -0.72382
H          0.14286       -11.02143        -0.80834
H          2.63692       -10.99664        -0.85583
H          5.16394       -10.98121        -0.90358
H          7.26682        -9.73630        -0.75293
H          8.52129        -7.60191        -0.53505
H          9.73725        -5.42918        -0.23218
H         11.03237        -3.18730         0.50033
