         244
 CSIRO Nanostructure Databank - Neutral Graphene Oxide Data Set
C          3.00990         2.88860        -4.29026
C          2.83625         4.21672        -3.91304
C          4.01288         2.10586        -3.71175
C          3.67148         4.82510        -2.93958
C          2.45360         7.00774        -3.00922
C          2.26963         8.29559        -2.54016
C          3.51138         6.18656        -2.55313
C          3.07123         8.83368        -1.46922
C          1.69838        10.91308        -1.29079
C          1.59392        12.30557        -0.97770
C          2.75393        10.13727        -0.86545
C          2.54145        12.96250        -0.23898
C          1.25713        15.11298         0.03140
C          1.18363        16.41913         0.35585
C          2.60661        14.47244        -0.22218
C          2.40582        17.17018         0.60437
C          2.47200        18.54556         0.48540
C          4.85456         2.63910        -2.71424
C          4.68930         4.01421        -2.30736
C          5.88931         1.84267        -2.14994
C          5.48018         4.53693        -1.26395
C          4.59889         6.85357        -1.74844
C          4.14074         8.08957        -1.01199
C          5.40707         5.90177        -0.89314
C          4.90242         8.51194         0.21740
C          3.65761        10.68786         0.16378
C          3.56790        12.18918         0.46220
C          4.94456         9.99715         0.43381
C          4.77671        12.86917         0.98024
C          3.67746        15.05626         0.68602
C          3.59431        16.40981         0.95167
C          4.81493        14.23126         1.10250
C          4.75483        17.19527         1.53156
C          3.73070        19.22814         0.52960
C          4.88031        18.57376         0.90391
C          6.70463         2.31405        -1.11859
C          6.39298         3.63535        -0.51837
C          7.82372         1.58674        -0.66400
C          7.31089         4.18839         0.52854
C          6.27526         6.45311         0.05246
C          6.24370         7.84481         0.32175
C          7.30274         5.67637         0.85112
C          7.36758         8.51563         0.82351
C          6.00062        10.60556         1.05416
C          5.82183        11.99987         1.64532
C          7.27891         9.89632         1.20569
C          7.13663        12.69230         1.88006
C          5.89700        14.94257         1.92523
C          6.01596        16.36328         1.28538
C          7.28555        14.19552         2.12828
C          7.31341        17.10642         1.54823
C          6.17815        19.20641         0.88720
C          7.32935        18.54317         1.19726
C          8.76511         2.09913         0.24857
C          8.50017         3.37371         1.04008
C          9.94139         1.39197         0.52078
C          9.76461         4.18600         1.24294
C          8.66517         6.34505         0.62969
C          8.62325         7.81985         0.99860
C          9.80677         5.56539         1.25067
C          9.76058         8.50601         1.36215
C          8.42597        10.56077         1.66848
C          8.20949        11.90108         2.16827
C          9.75895         9.95403         1.56008
C         10.10909        12.99323         1.89882
C          8.40479        14.76538         1.17681
C          8.56673        16.28828         1.37682
C          9.78825        14.11016         1.21575
C          9.76803        16.95456         0.79089
C          8.66920        19.23358         1.28514
C          9.80028        18.41082         0.69698
C         11.03879         1.98145         1.20772
C         10.94187         3.39891         1.62640
C         12.25601         1.31436         1.32213
C         12.28081         4.16950         1.73595
C         11.03193         6.28787         1.47731
C         11.01619         7.77059         1.76598
C         12.25272         5.62177         1.54048
C         12.27098         8.47605         1.31135
C         11.00390        10.62351         1.47489
C         11.29977        12.10942         1.74153
C         12.24153         9.88319         1.21363
C         12.28697        12.70604         0.78177
C         10.79036        14.69450         0.23778
C         10.81543        16.21218         0.31134
C         12.16672        14.04831         0.35525
C         11.92960        16.86293        -0.48749
C         10.87809        19.06332         0.14783
C         12.03580        18.36694        -0.34292
C         13.50397         2.00349         1.49325
C         13.52514         3.43660         1.51177
C         14.72354         1.30949         1.43438
C         14.71575         4.14972         1.29784
C         13.49997         6.31767         1.33405
C         13.48008         7.75000         1.17086
C         14.70336         5.59617         1.19571
C         14.69493         8.43056         0.86080
C         13.46461        10.55922         0.86246
C         13.46054        11.97316         0.57138
C         14.67552         9.84384         0.67341
C         14.61968        12.62843         0.06789
C         13.30338        14.70833        -0.12435
C         13.25953        16.18782        -0.22693
C         14.55267        14.01859        -0.23114
C         14.49891        16.93368        -0.56078
C         13.17044        19.03103        -0.75478
C         14.43119        18.35573        -1.00972
C         15.94953         2.00391         1.29803
C         15.94232         3.43166         1.16798
C         17.18983         1.31266         1.26783
C         17.15409         4.12375         0.88588
C         15.92541         6.28318         0.87700
C         15.91372         7.70011         0.70618
C         17.13935         5.56056         0.70959
C         17.11194         8.38308         0.33113
C         15.89654        10.52474         0.30767
C         15.86650        11.94324         0.01742
C         17.09792         9.81422         0.15555
C         17.04421        12.66082        -0.26972
C         15.74199        14.68958        -0.63366
C         15.64437        16.11143        -1.03849
C         16.97927        14.02572        -0.61854
C         16.83358        16.82075        -1.55683
C         15.56155        18.98041        -1.46148
C         16.92501        18.32462        -1.35045
C         18.38346         1.98989         1.01103
C         18.34724         3.39028         0.73100
C         19.66381         1.31812         1.17166
C         19.56504         4.07888         0.29670
C         18.33279         6.25612         0.36055
C         18.30091         7.64906         0.13665
C         19.58826         5.54205         0.24147
C         19.49829         8.29992        -0.50253
C         18.34028        10.50730        -0.14175
C         18.38760        12.01896        -0.02056
C         19.50374         9.80661        -0.36936
C         19.53124        12.65530        -0.79058
C         18.26471        14.82843        -0.75031
C         18.09887        16.02250        -1.67190
C         19.48964        14.01985        -1.12128
C         19.29526        16.73593        -2.18090
C         18.05374        18.90966        -2.17410
C         19.18894        18.20029        -2.44469
C         20.84798         1.96249         1.03767
C         20.91607         3.32426         0.48112
C         22.08773         4.17335         0.67390
C         20.81082         6.21842         0.13558
C         20.81365         7.65083        -0.11522
C         22.03902         5.51089         0.41245
C         21.96604         8.39469        -0.22727
C         20.75551        10.49284        -0.64274
C         20.72012        11.91241        -0.98738
C         21.93946         9.78105        -0.56448
C         21.84195        12.55996        -1.54617
C         20.63720        14.67675        -1.64972
C         20.62147        16.10169        -2.00342
C         21.80151        13.90913        -1.86375
C         21.72941        16.84006        -2.33062
C         20.40774        18.83625        -2.90855
C         21.60690        18.19142        -2.81624
O         11.53240         3.71421         2.91224
O         11.50110        16.55900        -1.81617
O          6.05086         3.55784         0.93755
O         14.10445        16.77353         0.84234
O          8.14036        16.76403         2.69379
O          9.26887        12.47436         2.88479
O         18.47227        15.84786        -3.06007
O         20.26812         3.44214        -0.81860
O          3.00713        11.18201         1.37710
O         15.82458        16.35081        -2.49255
O         18.51373        15.36759         0.58276
H         18.58086        14.59856         1.19409
O          4.54795        17.45499         2.95190
H          3.72028        17.97377         3.03822
O         11.02359         7.86598         3.23712
H         11.73809         7.28170         3.56920
O          6.98099         5.81621         2.24715
H          6.20789         5.23949         2.42848
O          5.96646        16.22871        -0.16050
H          6.66996        15.59014        -0.45098
O          7.92070        14.49159        -0.16534
H          8.70606        14.46446        -0.78400
O          7.72616        14.39446         3.46688
H          6.93454        14.65828         3.99458
O          8.14140         2.91498         2.37425
H          7.18336         2.69134         2.34257
O          5.56383         7.35320        -2.76468
H          5.06087         7.92121        -3.38737
O         17.34775        18.53028         0.04040
H         16.60996        18.25903         0.62816
O          4.11799         7.98566         1.35282
H          4.30610         8.54985         2.13402
O         19.35353         8.02657        -1.94697
H         20.13758         8.41325        -2.39219
O         11.97446        12.09223         3.04249
H         11.26973        11.96997         3.71705
O         10.36359        14.35508        -1.12588
H         10.77270        15.07650        -1.70858
O          8.62356        20.53307         0.69984
H          8.50379        20.43196        -0.26663
O          5.33071        14.97566         3.26172
H          4.89516        15.85191         3.41941
O          3.00139        14.85147        -1.58577
H          3.26363        15.79701        -1.56228
O          8.88924         6.27602        -0.81134
H          9.68313         6.80840        -1.02814
O         18.67927        12.32317         1.39762
H         19.50626        11.84933         1.63174
O          5.30102        11.76125         3.00126
H          5.15261        12.64462         3.40830
H          2.35628         2.45369        -5.05904
H          2.04844         4.80504        -4.40264
H          4.14561         1.06067        -4.02590
H          1.72397         6.60910        -3.72860
H          1.42755         8.87961        -2.93397
H          0.97056        10.51081        -2.00891
H          0.80226        12.87879        -1.48087
H          0.34359        14.53519        -0.17050
H          0.21589        16.93824         0.42800
H          1.56883        19.11103         0.21431
H          6.06818         0.83757        -2.56106
H          3.77628        20.27626         0.19840
H          8.03074         0.61036        -1.13090
H          6.23405        20.27104         0.60908
H         10.07999         0.39479         0.07283
H          8.89195        19.38054         2.38023
H         12.29580         0.24076         1.08020
H         10.88515        20.16520         0.15129
H         14.72583         0.20963         1.45054
H         13.16290        20.13256        -0.79609
H         17.20572         0.22889         1.45546
H         15.51867        20.04493        -1.74089
H         19.64468         0.27851         1.53186
H         18.04468        19.99554        -2.36051
H         21.78911         1.46246         1.31190
H         23.01230         3.71763         1.05853
H         22.96318         6.09499         0.52323
H         22.95097         7.93113        -0.07713
H         22.90165        10.28815        -0.71730
H         22.76449        11.99529        -1.73789
H         22.69384        14.37990        -2.29851
H         22.73916        16.41286        -2.25034
H         20.36244        19.87914        -3.25526
H         22.52766        18.71368        -3.11361
