         424
 CSIRO Nanostructure Databank - Neutral Graphene Oxide Data Set
C          1.36802         3.40594        -1.35166
C          0.18389         4.08540        -1.54306
C          1.31547         6.24811        -1.36447
C          0.15317         5.49664        -1.54788
C          1.30513         7.71265        -1.40262
C          0.12443         8.46126        -1.69489
C          1.28314        10.63182        -1.65349
C          0.11638         9.85078        -1.77407
C          1.22790        12.08202        -1.67097
C          0.06076        12.72479        -1.16602
C          1.21796        14.86703        -0.89205
C          0.03848        14.06864        -0.84802
C          1.20306        16.27451        -0.55927
C          0.00894        16.96963        -0.27145
C          1.18258        19.11513        -0.11168
C         -0.00522        18.34156        -0.06855
C          1.17512        20.55437        -0.00135
C         -0.05143        21.28318         0.06419
C          1.10945        23.44011         0.02341
C         -0.08496        22.65601         0.07548
C          1.07330        24.85476         0.03671
C         -0.11009        25.59638         0.28068
C          1.12598        27.70723         0.56305
C         -0.09505        26.96071         0.50173
C          1.14500        29.09443         0.97082
C         -0.00391        29.85761         1.19478
C          1.19345        32.01549         1.23785
C          0.02090        31.26073         1.32452
C          1.21874        33.46202         1.16063
C          0.02981        34.23134         1.23566
C          1.29041        36.31631         1.23923
C          0.06206        35.61569         1.27291
C          1.34242        37.74576         1.32649
C          3.79468         3.43653        -0.92752
C          2.58600         4.12153        -1.14702
C          3.76651         6.27510        -0.93928
C          2.56095         5.56080        -1.15796
C          3.73401         7.72952        -0.88941
C          2.49366         8.41338        -1.17628
C          3.69202        10.60984        -0.72254
C          2.52682         9.88363        -1.33815
C          3.60952        12.02232        -0.13932
C          2.33331        12.97174        -1.95204
C          3.74269        14.97525        -1.36943
C          2.39941        14.26847        -1.39959
C          3.66324        16.36793        -0.79188
C          2.43220        17.02203        -0.56607
C          3.64724        19.16442        -0.31772
C          2.41907        18.43196        -0.31059
C          3.64189        20.59117        -0.10113
C          2.39809        21.28188         0.00656
C          3.57230        23.45118         0.15505
C          2.37502        22.73342         0.04568
C          3.59349        24.87346         0.01858
C          2.32252        25.63175        -0.29513
C          3.56909        27.75384         0.22630
C          2.33865        27.05313         0.24128
C          3.65595        29.09132         0.63190
C          2.44919        29.74613         1.14431
C          3.70845        32.01078         0.90008
C          2.47367        31.30375         1.27903
C          3.69910        33.42775         0.89499
C          2.47024        34.14841         1.07007
C          3.74954        36.27448         1.09181
C          2.50374        35.57725         1.12193
C          3.78164        37.70333         1.21896
C          2.53949        38.41322         1.32624
C          6.22537         3.46503        -0.46882
C          4.99961         4.13484        -0.68576
C          6.19305         6.27512        -0.42579
C          4.97856         5.57516        -0.67708
C          6.18025         7.74109        -0.50839
C          4.88697         8.42961        -0.56733
C          6.14563        10.67401        -0.45660
C          4.84764         9.85292        -0.08087
C          6.07363        12.10822         0.13694
C          4.83873        12.86373        -0.33544
C          6.13044        14.93178        -0.53688
C          4.87836        14.18457        -0.68283
C          6.13741        16.32026        -0.61215
C          4.88050        17.06719        -0.66119
C          6.14625        19.23102        -0.65232
C          4.86532        18.46847        -0.47397
C          6.10551        20.63378        -0.09148
C          4.88233        21.29106         0.05293
C          6.08785        23.49200         0.17977
C          4.84012        22.72776         0.55095
C          6.04534        24.84145        -0.03259
C          4.78971        25.56481        -0.04763
C          6.05755        27.68500         0.32525
C          4.80753        27.05542        -0.30797
C          6.07638        29.18468         0.21599
C          4.88227        29.85389         0.51227
C          6.11472        32.00143         0.36000
C          4.88931        31.29069         0.61265
C          6.14697        33.43226         0.54035
C          4.94051        34.13513         0.78037
C          6.21897        36.23860         0.99809
C          4.96656        35.55561         0.94110
C          6.24115        37.68213         1.14047
C          5.01463        38.37797         1.23064
C          8.64326         3.49273        -0.00641
C          7.42239         4.16977        -0.21481
C          8.61439         6.33995         0.16216
C          7.40459         5.61449        -0.17388
C          8.61176         7.75737         0.32305
C          7.41782         8.49611        -0.11017
C          8.51568        10.63852         0.37564
C          7.38226         9.96483         0.05998
C          8.64183        12.04893        -0.13654
C          7.35753        12.83921        -0.10663
C          8.62239        14.92604        -0.14635
C          7.36481        14.20157        -0.26848
C          8.60733        16.31699        -0.14329
C          7.36588        17.05738        -0.34769
C          8.55729        19.14760         0.30090
C          7.35322        18.42814        -0.23753
C          8.57502        20.62411         0.01638
C          7.35755        21.30564         0.05544
C          8.61986        23.43103        -0.16775
C          7.39173        22.76834         0.39555
C          8.59616        24.85421        -0.48092
C          7.27960        25.59778        -0.37658
C          8.50751        27.75520        -0.27512
C          7.32346        27.03590        -0.13878
C          8.48534        29.16398        -0.33631
C          7.28141        29.89018        -0.07883
C          8.52150        32.09820        -0.40426
C          7.28063        31.31443        -0.01676
C          8.61684        33.44724         0.26845
C          7.39762        34.13194         0.56994
C          8.72758        36.18035         1.20269
C          7.41733        35.51377         0.88412
C          8.70799        37.67950         1.00778
C          7.47739        38.36518         1.09755
C         11.05134         3.50588         0.45907
C          9.83521         4.19529         0.28400
C         11.00664         6.33921         0.78405
C          9.81492         5.63177         0.40918
C         10.96348         7.77492         0.97081
C          9.75032         8.46657         0.76024
C         10.92957        10.72175         1.40791
C          9.58306         9.92573         1.20080
C         10.98613        12.12775         0.80405
C          9.83322        12.80866         0.36763
C         11.06666        14.91996         0.29436
C          9.84344        14.20656         0.15603
C         11.07363        16.33379         0.11642
C          9.84517        17.04129        -0.01189
C         11.06735        19.16429        -0.04551
C          9.85057        18.44764         0.01737
C         11.05826        20.62044        -0.09772
C          9.83735        21.31120        -0.03187
C         11.07472        23.46934        -0.33079
C          9.83071        22.75622        -0.17164
C         11.05834        24.91062        -0.37528
C          9.85500        25.59321        -0.39716
C         11.04743        27.79405        -0.54086
C          9.82923        27.05529        -0.05910
C         11.00229        29.13967        -0.74870
C          9.70064        29.89961        -0.84569
C         11.07122        32.02013        -0.40532
C          9.78968        31.26018        -0.13092
C         11.07949        33.41730        -0.12079
C          9.86238        34.10939         0.26418
C         11.12730        36.21036         0.46922
C          9.92970        35.50334         0.58796
C         11.15769        37.65080         0.68821
C          9.92238        38.34940         0.89049
C         13.46797         3.49748         0.89748
C         12.23725         4.20077         0.77485
C         13.41616         6.24940         1.59133
C         12.20281         5.61832         0.95654
C         13.41915         7.77895         1.55945
C         12.17265         8.51310         1.23779
C         13.44478        10.62791         1.17090
C         12.20208         9.91237         1.16303
C         13.43068        12.10411         1.30819
C         12.19823        12.84206         0.93439
C         13.50114        14.97540         0.69536
C         12.27027        14.22561         0.62257
C         13.51285        16.33060         0.41675
C         12.29992        17.05264         0.13191
C         13.56442        19.16687        -0.40462
C         12.28665        18.45492        -0.05802
C         13.53320        20.66292        -0.22928
C         12.30585        21.34199        -0.20401
C         13.54289        23.50217        -0.35377
C         12.29957        22.78046        -0.28563
C         13.54414        24.92317        -0.45888
C         12.31093        25.64837        -0.44482
C         13.52493        27.76674        -0.78211
C         12.29606        27.04786        -0.58941
C         13.51496        29.17117        -0.93948
C         12.22466        29.90253        -1.19613
C         13.49735        32.03650        -0.77421
C         12.24845        31.34595        -0.73666
C         13.52108        33.43747        -0.49266
C         12.30808        34.12760        -0.17885
C         13.56544        36.23671         0.06206
C         12.34034        35.53257         0.10278
C         13.59618        37.65442         0.33776
C         12.36611        38.33130         0.61709
C         15.92285         3.47385         0.92062
C         14.70053         4.17915         0.98659
C         15.90412         6.31742         0.98720
C         14.71136         5.61780         1.11150
C         15.96939         7.77685         1.12155
C         14.72963         8.52751         1.45978
C         15.92684        10.70011         1.09133
C         14.69279         9.98391         1.19711
C         15.97543        12.09368         1.05546
C         14.74766        12.85431         1.37023
C         16.03058        14.99214         0.75636
C         14.75914        14.38786         1.32365
C         16.05060        16.37120         0.53745
C         14.76760        17.10440         0.59456
C         16.05259        19.24264        -0.00164
C         14.77019        18.55626         0.26373
C         16.02482        20.64999        -0.18279
C         14.77297        21.36581        -0.24280
C         16.02356        23.50270        -0.41048
C         14.77769        22.78974        -0.31452
C         16.01573        24.93243        -0.58338
C         14.78181        25.63552        -0.59114
C         15.97891        27.77456        -0.96606
C         14.76457        27.05768        -0.75677
C         15.94643        29.17358        -1.16986
C         14.72823        29.88227        -1.08299
C         15.95059        32.03982        -1.03659
C         14.72257        31.33946        -1.03020
C         15.97442        33.45166        -0.78636
C         14.75813        34.14425        -0.50770
C         16.01593        36.25062        -0.23986
C         14.78171        35.54796        -0.23381
C         16.03771        37.66401         0.03568
C         14.81159        38.33736         0.31315
C         18.39591         3.46768         0.83985
C         17.14610         4.16101         0.87330
C         18.36110         6.28397         0.65446
C         17.14272         5.59474         0.81357
C         18.32737         7.74580         0.29653
C         17.12333         8.46079         0.87876
C         18.32687        10.59853         0.30135
C         17.24175         9.94092         1.17598
C         18.40639        12.08981         0.56368
C         17.21683        12.80188         0.78538
C         18.45435        14.92184         0.39765
C         17.22947        14.23699         0.67593
C         18.45176        16.32701         0.14604
C         17.25488        17.06400         0.19465
C         18.47763        19.24327        -0.13747
C         17.25226        18.51463        -0.01621
C         18.48645        20.64286        -0.10337
C         17.25876        21.37020        -0.20901
C         18.50584        23.50841        -0.60838
C         17.24030        22.78757        -0.37876
C         18.50150        24.97951        -0.63249
C         17.24720        25.66634        -0.70979
C         18.46765        27.79698        -0.99435
C         17.23192        27.06752        -0.90794
C         18.46377        29.19000        -1.29187
C         17.17451        29.88698        -1.67382
C         18.38458        32.05682        -1.36662
C         17.19126        31.36015        -1.30896
C         18.43303        33.46895        -1.07459
C         17.20944        34.15635        -0.78826
C         18.47037        36.26495        -0.50939
C         17.23268        35.55984        -0.51278
C         18.48063        37.67254        -0.23516
C         17.26147        38.34692         0.03000
C         19.58011         4.16137         0.77120
C         20.81810         6.31908         0.61928
C         19.58416         5.58358         0.66410
C         20.83514         7.68859         0.59182
C         19.63633         8.47337         0.50424
C         20.85572        10.62403         0.46271
C         19.64185         9.86098         0.46312
C         20.86190        11.98749         0.39840
C         19.64884        12.76989         0.44170
C         20.92768        14.91369         0.26309
C         19.68286        14.18596         0.38299
C         20.96192        16.23521        -0.02937
C         19.71649        16.98674        -0.25522
C         20.99737        19.27241        -0.33127
C         19.73554        18.50248        -0.38767
C         21.01129        20.59004        -0.08773
C         19.76785        21.37983         0.24448
C         20.95849        23.65138         0.01950
C         19.82177        22.79069        -0.32660
C         20.91915        24.99282        -0.19555
C         19.71051        25.68874        -0.57832
C         20.90012        27.87867        -0.81942
C         19.70458        27.12186        -0.77676
C         20.88074        29.23092        -1.11311
C         19.66419        29.89712        -1.38021
C         20.88422        32.11352        -1.64296
C         19.62008        31.33545        -1.87012
C         20.88219        33.42248        -1.30850
C         19.66440        34.16422        -1.05341
C         20.90189        36.32035        -0.75722
C         19.69759        35.57737        -0.77273
C         20.90162        37.69131        -0.49042
C         19.71438        38.36863        -0.23154
O          2.63332        30.41717         2.42906
O          7.12926         8.23549        -1.56755
O         19.64520        17.64225        -1.57797
O          7.80165        25.21138        -1.70416
O         14.62707        18.13853         1.65286
O         14.11073         8.26322         2.77448
O         19.33850        22.90707        -1.68380
O         14.05548        12.43941         2.61270
O          3.71857        10.33070        -2.15087
O          2.78675        12.27211         0.73172
O         11.01457        10.99061         2.84958
H         11.91882        11.32042         3.04696
O          2.34067        25.78089        -1.77561
H          1.47451        26.16266        -2.03562
O         12.12217        29.99487        -2.68491
H         12.42889        29.13866        -3.05482
O          9.93612        27.05848         1.42244
H         10.84695        26.77189         1.65024
O          4.68730         9.75722         1.34105
H          4.83934        10.65347         1.73849
O          6.21872        10.81369        -1.87796
H          6.55259         9.95188        -2.23055
O         17.70000        10.05599         2.55260
H         16.98197         9.73620         3.13895
O         19.74879        21.56741         1.69548
H         19.68474        20.68458         2.11644
O          9.80790        30.94331         1.28562
H          9.85222        31.78630         1.78511
O         13.32019         5.85503         2.99830
H         13.81106         6.54158         3.50864
O          4.22356        15.18589        -2.73184
H          4.18697        14.31219        -3.18543
O         14.75037        14.86313         2.69961
H         14.26146        14.19012         3.22891
O          3.30582        12.67723        -2.85015
H          3.35126        11.70380        -3.04073
O          8.91624         9.80553         2.49268
H          9.59803         9.94717         3.19164
O          8.89754        35.98725         2.66290
H          9.69175        36.49965         2.92743
O          4.85140        27.25751        -1.73791
H          4.07982        26.77051        -2.11604
O          9.47089        30.08904        -2.27722
H         10.36315        30.18746        -2.70749
O          8.41319        32.42471        -1.81465
H          8.56199        31.58290        -2.31885
O          4.81723        22.66081         2.01990
H          5.75935        22.63190         2.32039
O          7.58303        22.81557         1.87800
H          8.25686        22.13800         2.10588
O          5.96527        12.00863         1.59795
H          6.80618        11.62778         1.93735
O          8.94629        11.85389        -1.57540
H          8.77805        12.70513        -2.03298
O          5.95163        27.36104         1.75070
H          6.72375        27.75483         2.21004
O         18.11143         7.76780        -1.17914
H         17.34772         7.18143        -1.37077
O          8.41248        19.07394         1.78377
H          9.31133        19.14217         2.17149
O         19.46742        31.23270        -3.33974
H         19.43608        32.14778        -3.69230
O          6.30153        19.42146        -2.11335
H          6.10630        18.56129        -2.54417
O         17.91203        10.49981        -1.08745
H         18.02515         9.55627        -1.37262
O         13.77932        18.92823        -1.83902
H         13.06920        19.39242        -2.33067
O         17.08409        29.81859        -3.13608
H         17.91518        30.23277        -3.48499
H          1.38641         2.30668        -1.34347
H         -0.75243         3.52975        -1.69265
H         -0.81364         5.99543        -1.69844
H         -0.82091         7.93238        -1.87419
H         -0.83508        10.34705        -2.01268
H         -0.83722        12.12172        -0.97226
H         -0.89601        14.49623        -0.46167
H         -0.94603        16.42829        -0.23266
H         -0.97139        18.82630         0.12476
H         -1.00552        20.73946         0.07647
H         -1.06269        23.15627         0.09143
H         -1.07164        25.07138         0.37119
H         -1.04526        27.46442         0.72333
H         -0.99059        29.37437         1.16852
H         -0.94886        31.77285         1.39616
H         -0.94363        33.72504         1.28686
H         -0.87735        36.18256         1.34791
H          0.39759        38.30285         1.40953
H          3.79996         2.33638        -0.93344
H          2.56344        39.50963         1.40970
H          6.24776         2.36539        -0.49600
H          5.02654        39.47489         1.31860
H          8.66947         2.39467        -0.06613
H          7.47864        39.46608         1.08237
H         11.07651         2.41190         0.34840
H          9.93768        39.45026         0.89501
H         13.46769         2.40210         0.79708
H         12.38627        39.41953         0.77873
H         15.91209         2.37430         0.89554
H         14.83253        39.41770         0.52023
H         18.39462         2.36924         0.88880
H         17.28122        39.42671         0.23983
H         20.54034         3.62551         0.77326
H         21.76367         5.75994         0.66800
H         21.80620         8.19979         0.64222
H         21.82095        10.09933         0.48000
H         21.83167        12.49972         0.35217
H         21.87871        14.37948         0.38974
H         21.92662        16.74328        -0.16420
H         21.93368        18.75084        -0.57797
H         21.97058        21.12945        -0.08158
H         21.84382        23.19783         0.48837
H         21.81158        25.58645         0.04664
H         21.86977        27.39094        -0.65361
H         21.83318        29.77518        -1.16258
H         21.84153        31.62406        -1.87179
H         21.84671        33.94230        -1.22444
H         21.86203        35.82761        -0.95865
H         21.85450        38.23921        -0.48642
H         19.72453        39.44772        -0.02200
