         598
 CSIRO Nanostructure Databank - Neutral Graphene Oxide Data Set
C         22.92749        69.70081        -1.08699
C         22.91592        71.12267        -1.32331
C         21.69577        71.82518        -1.49675
C         22.86353        73.96014        -1.57512
C         21.68690        73.21666        -1.63300
C         25.40485        65.49624        -0.07138
C         25.32595        66.89003        -0.22477
C         24.13496        67.58692        -0.55222
C         25.38503        69.70403        -0.92348
C         24.09385        68.98694        -0.80587
C         25.40334        71.20045        -1.20412
C         24.11616        71.88155        -1.31398
C         25.33860        74.02676        -1.30802
C         24.11424        73.30533        -1.39567
C         27.95011        61.26867         0.51789
C         27.91173        62.68474         0.38595
C         26.69145        63.37641         0.23107
C         27.86869        65.50692         0.23804
C         26.63715        64.79282         0.15521
C         27.85283        66.96418         0.31994
C         26.53800        67.68818         0.06665
C         27.75983        69.81952        -0.26144
C         26.60280        69.10557        -0.34294
C         27.74330        71.32566        -0.17923
C         26.59957        71.97858        -0.89114
C         27.79439        74.11560        -0.80547
C         26.57488        73.38809        -0.99052
C         30.52777        57.08685         1.07602
C         30.47490        58.48465         0.86305
C         29.23212        59.18082         0.88213
C         30.40625        61.34556         0.84960
C         29.15565        60.57280         0.72665
C         30.39871        62.77245         0.51338
C         29.15517        63.42533         0.37284
C         30.35108        65.58510         0.26872
C         29.12195        64.84726         0.26471
C         30.32910        67.02270         0.13172
C         29.10802        67.68654         0.09402
C         30.33337        69.89578        -0.25560
C         29.04741        69.10519        -0.23466
C         30.25106        71.36644        -0.11067
C         29.06839        72.03980        -0.30365
C         30.24457        74.20400        -0.52455
C         29.03691        73.48677        -0.49771
C         32.75390        52.70272         1.52047
C         32.40733        53.95345         0.95946
C         31.64647        55.00002         1.43999
C         32.87016        56.99153         0.30749
C         31.68705        56.33738         0.86688
C         32.89488        58.43117         0.31335
C         31.70942        59.15007         0.62042
C         32.94382        61.35064         0.37481
C         31.74945        60.60252         0.77162
C         32.89201        62.77169         0.35319
C         31.62546        63.47605         0.42738
C         32.81987        65.64029         0.28291
C         31.59060        64.90006         0.31881
C         32.80885        67.06717         0.26783
C         31.56889        67.77632         0.14117
C         32.78072        69.92851         0.22104
C         31.57037        69.18044         0.08842
C         32.77433        71.35801         0.20724
C         31.48963        72.07514         0.21820
C         32.80390        74.21915        -0.25467
C         31.48866        73.63218        -0.02578
C         35.25999        48.62108         0.68797
C         35.24512        49.90769         1.14307
C         34.03788        50.66282         1.34860
C         35.27053        52.85362         0.93471
C         33.97381        52.04232         1.17915
C         35.26797        54.11988         0.09198
C         34.14418        54.86682        -0.15081
C         35.29172        57.02592        -0.20531
C         34.07907        56.31085        -0.07599
C         35.30293        58.44623        -0.17998
C         34.11357        59.16704         0.04274
C         35.33002        61.36900        -0.13855
C         34.13654        60.63347         0.06374
C         35.34190        62.80457        -0.02747
C         34.09182        63.50713         0.17007
C         35.25883        65.69069         0.16063
C         34.05588        64.94318         0.19875
C         35.26176        67.07845         0.34580
C         34.02592        67.79314         0.35845
C         35.20893        69.97446         0.52954
C         34.01047        69.23158         0.36614
C         35.21550        71.38434         0.43542
C         33.97827        72.08465         0.25455
C         35.24701        74.18871        -0.08340
C         33.98355        73.52345         0.00721
C         37.62968        44.43641        -0.57841
C         37.64294        45.83367        -0.17956
C         36.52189        46.62887        -0.25597
C         37.76105        48.57661         0.84635
C         36.53871        48.09467         0.08118
C         37.79436        49.91199         1.14386
C         36.52066        50.68220         1.36373
C         37.79111        52.73769         0.61462
C         36.48143        51.94398         0.48632
C         37.81586        54.06049         0.25739
C         36.56730        54.75646        -0.16285
C         37.84015        57.02505        -0.06762
C         36.55734        56.27125        -0.39602
C         37.84089        58.42063        -0.68165
C         36.52618        59.15760        -0.62978
C         37.87564        61.35942        -0.54297
C         36.55335        60.66988        -0.59882
C         37.81086        62.84885        -0.50491
C         36.53614        63.52640        -0.18550
C         37.72786        65.65754         0.45253
C         36.53873        65.03836        -0.27785
C         37.70983        67.12829         0.67419
C         36.51560        67.79023         0.58618
C         37.73230        70.02898         0.96937
C         36.43454        69.24253         0.87547
C         37.68868        71.45537         0.61428
C         36.46763        72.10982         0.42857
C         37.70570        74.22018         0.03173
C         36.46061        73.52906         0.12830
C         40.09952        40.17552        -1.34711
C         40.04455        41.51318        -0.94836
C         38.82609        42.25200        -0.94637
C         40.02430        44.26533        -0.12422
C         38.75634        43.59867        -0.52563
C         39.81027        45.43341         0.73694
C         38.82699        46.33575         0.53018
C         40.26346        48.38495         1.38980
C         38.86468        47.64543         1.29957
C         40.28357        49.90549         1.41241
C         39.02600        50.66822         1.24281
C         40.28969        52.76953         0.89680
C         39.03030        52.03150         0.94001
C         40.34108        54.12025         0.55143
C         39.10682        54.76263         0.04060
C         40.42230        56.96223        -0.25116
C         39.11504        56.21803        -0.33107
C         40.44047        58.46258        -0.40028
C         39.13686        59.19794        -0.69782
C         40.38456        61.39581        -0.48867
C         39.07126        60.68401        -0.55941
C         40.39852        62.89953        -0.37585
C         39.08733        63.62936        -0.36050
C         40.29082        65.72854         0.55418
C         39.03610        64.95005         0.36766
C         40.25211        67.11713         0.79699
C         38.96830        67.81417         1.19107
C         40.18990        70.01610         0.80632
C         39.00230        69.29929         0.88469
C         40.14331        71.45902         0.66690
C         38.93873        72.14692         0.48768
C         40.17090        74.27416         0.04231
C         38.93208        73.57338         0.19851
C         42.44454        35.84581        -1.76275
C         42.49064        37.26083        -1.70653
C         41.29707        38.03389        -1.70908
C         42.59069        40.08252        -1.40874
C         41.32331        39.42382        -1.47913
C         42.61160        41.46100        -0.87081
C         41.32103        42.15322        -0.52212
C         42.69910        44.22941         0.20416
C         41.37676        43.63136        -0.25336
C         42.82034        45.58717         0.58175
C         41.74267        46.35527         1.10701
C         42.77006        48.52603         0.79233
C         41.55114        47.72109         0.99455
C         42.79851        49.93355         1.25998
C         41.54862        50.65672         1.20361
C         42.79703        52.76091         0.88509
C         41.52639        52.03293         1.06472
C         42.81495        54.22733         1.00280
C         41.56697        54.90847         0.64574
C         42.90783        56.99724         0.23210
C         41.58896        56.25785         0.33526
C         42.76370        58.50462         0.49078
C         41.61766        59.19053         0.15468
C         42.73309        61.45623         0.61453
C         41.63980        60.67017        -0.02872
C         42.73378        62.82407         0.68733
C         41.60973        63.61638         0.13748
C         42.72344        65.75618         0.73040
C         41.51826        65.05021         0.51571
C         42.69653        67.15910         0.82940
C         41.46469        67.84897         0.83243
C         42.67113        69.98596         0.65423
C         41.46565        69.30951         0.82243
C         42.68647        71.46484         0.61921
C         41.39585        72.23093         0.66611
C         42.65106        74.30904         0.04276
C         41.40225        73.64434         0.21263
C         44.83815        32.91348        -1.34523
C         43.64996        33.58492        -1.50219
C         44.94543        35.75012        -1.21160
C         43.58027        35.03324        -1.34326
C         45.00176        37.14831        -1.70875
C         43.75473        37.95077        -1.68470
C         45.09656        40.06854        -1.65275
C         43.78975        39.35655        -1.63248
C         45.12792        41.52581        -1.28256
C         43.82658        42.31938        -0.97552
C         45.18362        44.22887        -0.08263
C         43.89592        43.58949        -0.24274
C         45.29413        45.57579         0.25166
C         44.02167        46.34871         0.04003
C         45.28168        48.31304         1.20461
C         44.05297        47.80579         0.50214
C         45.24719        49.76355         1.64045
C         44.01832        50.56350         1.38974
C         45.27983        52.79075         1.51650
C         44.09480        52.01176         1.14719
C         45.26035        54.17878         1.53505
C         44.00204        54.91198         1.26471
C         44.91313        57.20954         1.61231
C         43.95890        56.36561         1.11765
C         45.11561        58.58766         1.24552
C         43.95025        59.24658         0.86212
C         45.20475        61.37870         1.45042
C         43.87894        60.68186         1.12219
C         45.21820        62.87162         1.42410
C         43.89843        63.59859         1.17905
C         45.19476        65.70295         0.88353
C         43.96655        65.03567         0.87226
C         45.22235        67.13500         0.77058
C         43.97397        67.89345         1.14274
C         45.12534        69.95285         0.31711
C         43.93916        69.30582         0.62662
C         45.11346        71.35418        -0.15257
C         43.84320        72.14246        -0.02384
C         45.13305        74.24881        -0.18738
C         43.88160        73.62527        -0.01925
C         46.08821        33.56876        -1.16538
C         47.43860        35.64978        -1.07346
C         46.19774        34.95809        -1.20523
C         47.53609        37.04958        -1.11252
C         46.36401        37.80310        -1.63168
C         47.50687        39.86742        -0.76383
C         46.39565        39.29235        -1.56149
C         47.24554        41.09009        -0.14882
C         46.29420        42.01505        -0.59139
C         47.76433        44.14917        -0.14665
C         46.42337        43.47568        -0.39487
C         47.75832        45.49449         0.45086
C         46.55309        46.23582         0.55110
C         47.79977        48.22812         1.45467
C         46.55726        47.57447         1.04645
C         47.84578        49.75862         1.69987
C         46.53519        50.51904         1.85245
C         47.83227        52.71135         1.59446
C         46.51826        52.01970         1.82328
C         47.76355        54.15226         1.26445
C         46.57350        54.84708         1.56797
C         47.77264        57.02127         1.24162
C         46.74106        56.22922         1.78814
C         47.67935        58.49029         1.13558
C         46.43309        59.22173         1.29742
C         47.65407        61.36339         0.95367
C         46.46002        60.63594         1.22673
C         47.65235        62.80960         0.87387
C         46.46152        63.56728         1.06700
C         47.65567        65.66083         0.59345
C         46.44168        64.96408         0.87456
C         47.64218        67.07328         0.34377
C         46.40165        67.80865         0.47627
C         47.54391        69.93135        -0.09351
C         46.38333        69.25026         0.27877
C         47.57237        71.36124        -0.28090
C         46.38197        72.09090        -0.24050
C         47.60466        74.20512        -0.33460
C         46.35894        73.52977        -0.28041
C         48.72033        37.75781        -0.78205
C         50.02267        39.82933        -0.34029
C         48.76191        39.16546        -0.58119
C         50.26651        41.21302        -0.13631
C         49.15651        42.06666         0.24883
C         50.30416        44.08347        -0.33909
C         49.04581        43.37936        -0.07745
C         50.30506        45.50237         0.14430
C         49.06174        46.07801         0.76628
C         50.26952        48.34585         0.73030
C         49.10767        47.55355         1.14462
C         50.18338        49.75295         0.70371
C         49.05833        50.44475         1.22511
C         50.21980        52.66314         0.72814
C         49.07631        51.92043         1.27889
C         50.10463        54.10612         0.48285
C         48.91695        54.86960         0.90324
C         50.13099        56.99530         0.46606
C         48.91270        56.28710         0.79992
C         50.03127        58.45868         0.24940
C         48.82632        59.20381         0.71911
C         50.04450        61.37104         0.34275
C         48.84805        60.63632         0.66648
C         50.06951        62.77560         0.37543
C         48.86018        63.50856         0.60343
C         50.10198        65.63787         0.28124
C         48.87083        64.93408         0.50841
C         50.07419        67.03441        -0.02486
C         48.83120        67.72830        -0.03237
C         50.00732        69.89806        -0.79347
C         48.74710        69.15249        -0.43699
C         50.03091        71.37295        -0.59683
C         48.83948        72.05835        -0.43645
C         50.05656        74.22561        -0.41746
C         48.82944        73.51615        -0.39255
C         51.50476        41.89773        -0.34520
C         52.76851        44.07585        -0.38243
C         51.57558        43.31349        -0.33569
C         52.80679        45.48148        -0.15900
C         51.62484        46.13841         0.54496
C         52.67860        48.36797        -0.23877
C         51.46064        47.61884         0.20844
C         52.63377        49.86330        -0.21757
C         51.34073        50.54612         0.18161
C         52.64232        52.70817         0.27235
C         51.39794        52.00585         0.42660
C         52.66350        54.15092         0.37243
C         51.38153        54.87102         0.21336
C         52.62817        57.04561         0.20456
C         51.32776        56.34011         0.30574
C         52.63496        58.52242         0.01394
C         51.28797        59.19536        -0.12976
C         52.59054        61.45181        -0.14448
C         51.26489        60.69005        -0.10807
C         52.54422        62.83198         0.30136
C         51.32451        63.49853         0.32897
C         52.57801        65.63750         0.13749
C         51.33270        64.94190         0.32212
C         52.53242        67.01468        -0.27010
C         51.31112        67.68044        -0.37208
C         52.55692        69.80094        -1.01826
C         51.27071        69.08033        -0.86885
C         52.54925        71.28295        -0.84475
C         51.32807        72.10318        -0.56128
C         52.48186        74.40846        -0.37620
C         51.31636        73.61259        -0.54089
C         53.96967        46.24239        -0.33505
C         55.14782        48.43810        -0.19930
C         53.98935        47.67056        -0.22293
C         55.14696        49.87409        -0.07030
C         53.90010        50.59491        -0.02444
C         55.12827        52.67120         0.51973
C         53.86294        51.97555         0.21987
C         55.11219        54.16842         0.70901
C         53.82503        54.86979         0.57022
C         55.09041        57.08336         0.84032
C         53.75101        56.33976         0.94781
C         55.09463        58.59005         0.68314
C         53.76983        59.36517         0.62220
C         55.11571        61.50426         0.26916
C         53.91396        60.68668        -0.19614
C         55.05060        62.79340         0.67557
C         53.74476        63.54496         0.85270
C         55.07793        65.63900         0.17677
C         53.81291        64.96486         0.31437
C         55.08242        67.00214        -0.23660
C         53.82280        67.62160        -0.79533
C         55.01913        69.84345        -0.70463
C         53.84298        69.12792        -0.72278
C         55.00613        71.28271        -0.98524
C         53.82065        71.87252        -1.28124
C         55.05861        74.29195        -0.30927
C         53.78816        74.01110        -0.79058
C         56.35943        50.59393        -0.03350
C         57.56898        52.75606         0.14458
C         56.40081        51.99898         0.17672
C         57.58732        54.19630         0.21640
C         56.34526        54.93609         0.42430
C         57.49496        57.08358         0.06630
C         56.30478        56.31189         0.44237
C         57.51678        58.55175         0.28667
C         56.36590        59.28089         0.31566
C         57.60111        61.42351         0.75207
C         56.43754        60.78981         0.04207
C         57.58013        62.82724         1.07240
C         56.26070        63.60393         1.12446
C         57.54853        65.66205         0.28568
C         56.31615        64.97899         0.45951
C         57.53201        67.04838        -0.09819
C         56.28918        67.72923        -0.28982
C         57.48730        69.85515        -0.68907
C         56.29090        69.15053        -0.57202
C         57.52466        71.31454        -0.98263
C         56.24405        72.10072        -1.11038
C         57.48331        74.14314        -0.45720
C         56.25377        73.54403        -0.67412
C         58.78960        54.88645         0.12146
C         60.07804        57.09515         0.01285
C         58.82616        56.33008        -0.08681
C         60.09334        58.47402         0.18491
C         58.83484        59.18921         0.52252
C         60.14947        61.36538         0.61430
C         58.86958        60.66781         0.80142
C         60.19842        62.82848         0.67853
C         58.91462        63.60659         0.85551
C         60.01606        65.65199        -0.02403
C         58.83270        65.00398         0.41179
C         59.99233        67.05071        -0.35943
C         58.75175        67.75530        -0.32071
C         59.95935        69.87929        -0.67696
C         58.73371        69.16542        -0.55712
C         59.97584        71.32879        -0.67472
C         58.77268        72.04003        -0.68919
C         59.96934        74.14416        -0.41218
C         58.74954        73.45952        -0.55153
C         61.29564        59.21860         0.19749
C         62.57761        61.32470         0.17745
C         61.32592        60.63273         0.34775
C         62.69478        62.69540         0.00625
C         61.45620        63.53531         0.21194
C         62.28950        65.62188        -0.85388
C         61.25355        64.93790        -0.24175
C         62.43158        67.04254        -0.84691
C         61.19031        67.76272        -0.68471
C         62.41777        69.90397        -1.06063
C         61.17052        69.17132        -0.78563
C         62.45355        71.34924        -0.76721
C         61.21828        72.03429        -0.61535
C         62.45493        74.13195        -0.37626
C         61.20299        73.45606        -0.47191
C         64.00551        63.29105         0.03384
C         65.11957        65.58978        -0.16893
C         64.21424        64.57452        -0.48850
C         64.95819        66.97660        -0.51580
C         63.70776        67.65177        -0.83999
C         64.95189        69.90408        -0.73481
C         63.74437        69.11836        -1.03863
C         64.92584        71.29426        -0.71620
C         63.68275        72.03939        -0.69344
C         64.91142        74.28412        -0.22137
C         63.65924        73.45737        -0.45269
C         66.12115        67.76497        -0.35742
C         67.37747        69.86599        -0.25288
C         66.17156        69.17294        -0.47193
C         67.43709        71.27523        -0.30817
C         66.21198        72.02274        -0.65182
C         67.42257        74.09774         0.20578
C         66.21572        73.53245        -0.39498
C         68.60772        71.97741         0.00678
C         68.58382        73.36613         0.28173
O         31.35105        73.01591         1.30861
O         40.86094        44.48017        -1.33774
O         44.48169        42.36746        -2.26941
O         55.28692        57.95266         2.00662
O         48.78919        52.44739         2.66245
O         51.70849        50.35625        -1.23416
O         38.47093        63.53908        -1.67942
O         44.32815        60.91105         2.50765
O         38.53562        58.63882        -1.91408
O         46.48157        51.29573         3.09507
O         29.76048        69.41131        -1.51916
O         63.09444        69.52449        -2.29548
O         45.98362        39.90115        -2.81928
O         48.07851        41.46462         0.90766
O         58.89851        59.66496         1.93063
O         51.89464        69.25431        -2.21130
O         50.40172        58.71777        -1.17287
O         45.84623        37.29015        -2.89553
O         36.61446        55.36489        -1.50987
O         55.16822        53.27171         1.87728
O         49.09920        69.43352        -1.85047
O         42.06811        41.44010         0.51119
O         63.28076        64.89818        -1.49574
O         44.13221        35.55416        -0.04807
O         27.03311        67.49810         1.43281
O         44.20263        71.56082        -1.31420
O         47.17724        44.10654        -1.50067
O         43.62905        52.30181        -0.23438
O         36.30145        59.93002        -1.84675
O         38.21478        64.86947         1.59095
O         40.34793        49.09821         2.67361
O         32.94326        54.17948        -0.31468
O         58.42031        63.27394         2.19504
O         45.01265        48.68857         2.60706
O         49.31876        46.48610         2.15701
O         36.30110        51.49918        -0.81866
O         58.00737        56.75250        -1.26352
O         50.55022        54.39920        -0.89629
O         25.63696        70.18200        -2.28155
O         41.35861        63.47904        -1.31288
O         61.15551        63.40058         1.65320
O         53.00409        57.63511        -1.08029
O         39.16607        55.23661        -1.38228
O         66.39254        72.99676        -1.74240
O         53.76941        73.11612        -1.88884
O         47.93013        48.80385         2.79856
O         50.21382        45.21562        -1.26969
O         45.78304        56.79528         2.62773
O         57.00433        71.74449        -2.30702
O         51.73132        47.83020        -1.21539
O         40.80294        57.59956        -1.53354
O         44.43197        63.39272         2.53415
O         31.17458        61.05271         2.05575
O         42.24406        72.05534         1.87793
O         52.20415        71.61022         0.55898
O         36.96562        69.64586         2.19340
O         40.74332        45.62253         1.75554
O         51.80123        61.24585        -1.36560
O         43.46092        48.62579        -0.55658
O         41.38277        60.95783        -1.45150
O         54.15981        60.30039        -1.56321
H         53.29623        60.37281        -2.04406
O         51.88730        45.96451         1.95009
H         51.05751        46.18780         2.44331
O         35.59780        53.41221         2.23593
H         35.86297        52.66227         2.82621
O         56.04123        63.91031         2.53788
H         56.93792        63.96088         2.95463
O         38.91270        67.72048         2.65181
H         38.15417        68.28834         2.93482
O         53.83478        67.28319        -2.22762
H         53.10770        67.81284        -2.64048
O         53.36592        59.72015         1.95217
H         53.81843        59.09635         2.57003
O         37.82498        57.28011         1.37236
H         37.58162        56.45331         1.84186
O         43.84841        46.33849        -1.40257
H         43.41562        47.19024        -1.65351
O         36.64531        65.42539        -1.68380
H         37.30924        64.82195        -2.10563
O         43.36840        56.88647        -1.14328
H         42.60691        57.14290        -1.72200
O         44.02235        68.00055         2.61380
H         43.19724        68.44535         2.90488
O         38.49555        47.31875         2.66822
H         38.97492        47.95883         3.24749
O         53.45165        63.66467         2.28089
H         54.29989        63.89452         2.73591
O         27.37939        71.55740         1.25217
H         27.52266        72.51179         1.43755
O         56.74707        60.92046        -1.38532
H         55.93034        60.64516        -1.87444
O         53.33398        56.36106         2.33857
H         54.03729        55.93832         2.87632
O         36.62408        48.77117        -1.21997
H         36.51179        49.76872        -1.09335
O         64.91785        75.41706        -1.10320
H         65.14959        75.08577        -1.99691
O         36.57155        51.05333         2.77689
H         36.66254        50.22929         3.30082
H         22.83345        75.05520        -1.66288
H         25.31791        75.12124        -1.41784
H         27.78123        75.20540        -0.95153
H         30.25620        75.22899        -0.92363
H         32.86160        75.24876        -0.63897
H         35.25608        75.26515        -0.31136
H         37.69280        75.29662        -0.19658
H         40.13971        75.33567        -0.24627
H         42.64455        75.40010        -0.10438
H         45.17622        75.34842        -0.21116
H         47.61534        75.30533        -0.32164
H         50.01618        75.32425        -0.36210
H         52.35194        75.39871         0.08937
H         55.18468        75.10450         0.42312
H         57.50676        75.20571        -0.16977
H         59.96855        75.23711        -0.28797
H         62.46346        75.22135        -0.22558
H         64.87129        74.69190         0.82512
H         67.37712        75.11662         0.61659
H         21.96085        69.17574        -1.06455
H         20.74969        71.26602        -1.51674
H         20.72810        73.73582        -1.77237
H         24.49137        64.89810        -0.20850
H         23.19990        67.01318        -0.64408
H         27.00676        60.70397         0.47717
H         25.75452        62.80142         0.18955
H         29.62782        56.57800         1.45077
H         28.30485        58.59137         0.93081
H         32.09104        52.23671         2.26794
H         31.00871        54.85694         2.32559
H         34.31296        48.09173         0.49571
H         33.09416        50.10956         1.48453
H         36.68098        44.02684        -0.95857
H         35.60157        46.22955        -0.70983
H         39.15795        39.65859        -1.58759
H         37.91427        41.75113        -1.30570
H         41.49450        35.34784        -2.00825
H         40.32823        37.51611        -1.76607
H         44.84163        31.81738        -1.43227
H         42.74250        33.04413        -1.80695
H         47.00016        32.95942        -1.09462
H         48.33404        35.06005        -0.82430
H         49.63217        37.17236        -0.58604
H         50.91127        39.19421        -0.49560
H         52.42398        41.31665        -0.51704
H         53.71762        43.55787        -0.59485
H         54.90461        45.73176        -0.61617
H         56.12397        47.93031        -0.22720
H         57.30529        50.05156        -0.18233
H         58.52689        52.24694        -0.04155
H         59.74018        54.33402         0.16311
H         61.03047        56.55243        -0.08559
H         62.24238        58.69417         0.00093
H         63.48821        60.71085         0.11213
H         64.81506        62.74617         0.54184
H         66.00768        65.33017         0.42688
H         67.05777        67.24605        -0.10217
H         68.28778        69.29792        -0.00954
H         69.53487        71.41374         0.18492
H         69.49665        73.83879         0.67155
