         210
 CSIRO Nanostructure Databank - Neutral Graphene Oxide Data Set
C         30.85181        32.03334        -2.39780
C         30.87172        33.23821        -2.01390
C         30.81554        36.33739        -1.51379
C         30.83644        37.53041        -1.15286
C         30.94059        40.68372        -0.99800
C         30.97390        41.91968        -0.96729
C         33.16282        29.17562        -2.07410
C         32.12597        29.78887        -2.41136
C         33.09905        31.82857        -1.55176
C         31.94648        31.17976        -2.17479
C         33.04183        33.21382        -1.13773
C         31.84003        33.97526        -1.34247
C         32.84165        36.03242        -0.12888
C         31.67569        35.34781        -0.85213
C         32.90208        37.52707        -0.09087
C         31.87341        38.32232        -0.56285
C         33.08129        40.46509         0.06667
C         31.73170        39.75345        -0.12672
C         33.19034        41.86224         0.03073
C         32.18893        42.77055        -0.79327
C         33.09309        44.48982         0.59651
C         32.09830        44.07054        -0.01790
C         35.69746        27.51144        -1.35183
C         35.51212        28.90939        -1.16866
C         34.36210        29.65333        -1.49449
C         35.45600        31.72228        -0.74420
C         34.29162        31.07460        -1.26697
C         35.41503        33.14380        -0.45881
C         34.19568        33.84845        -0.55399
C         35.35797        36.02004         0.06956
C         34.08648        35.18774         0.19994
C         35.36815        37.39497         0.67203
C         34.06500        38.19294         0.54845
C         35.41336        40.25984         0.82332
C         34.18028        39.65970         0.48251
C         35.43154        41.66672         1.02247
C         34.28817        42.47084         0.72734
C         35.27331        44.35931         1.96718
C         34.25745        43.86019         1.14199
C         35.61013        45.70044         2.37516
C         37.99275        27.37863        -0.65676
C         36.74815        26.88123        -1.07937
C         37.92927        28.81828        -0.44559
C         36.68499        29.55914        -0.64320
C         37.77424        31.64604         0.17058
C         36.61943        30.96217        -0.43876
C         37.83195        33.11995         0.11819
C         36.64389        33.82127        -0.10863
C         37.89698        35.98006         0.39418
C         36.66483        35.29539        -0.03910
C         37.88914        37.36719         0.73123
C         36.64873        38.11716         0.80016
C         37.85046        40.21064         1.38076
C         36.63469        39.50422         1.04583
C         37.86768        41.57996         1.67086
C         36.57628        42.25933         1.63954
C         38.26910        44.53641         2.50427
C         36.35167        43.47530         2.27870
C         38.09109        45.90355         2.32545
C         36.72073        46.25830         2.48585
C         40.31673        24.56614         0.12379
C         39.31513        25.24573        -0.21456
C         40.40390        27.30576        -0.04659
C         39.17494        26.64774        -0.33685
C         40.45277        28.78993        -0.35388
C         39.12409        29.47655        -0.13595
C         40.35167        31.64364         0.33453
C         39.09968        30.87154         0.29313
C         40.31198        33.05578         0.42209
C         39.07773        33.79033         0.33945
C         40.32926        35.91338         0.65278
C         39.09355        35.22526         0.46413
C         40.33499        37.31936         0.90620
C         39.10687        38.02453         1.03272
C         40.37099        40.17822         1.58871
C         39.06695        39.38166         1.71747
C         40.34067        41.63731         1.36166
C         39.13988        42.33689         1.69313
C         40.37314        44.48125         1.25928
C         39.26952        43.75241         1.84951
C         40.33775        45.89607         1.14624
C         39.28397        46.71898         1.93954
C         39.95512        48.52412         0.53166
C         39.01392        47.96486         1.12001
C         42.81875        24.59105         0.81152
C         41.57032        25.14044         0.42917
C         42.79565        27.34701         0.63384
C         41.58623        26.60188         0.33104
C         42.80080        28.79286         0.59779
C         41.61502        29.50505         0.29157
C         42.81068        31.63923         0.57571
C         41.58320        30.92178         0.39115
C         42.79172        33.06893         0.55322
C         41.55658        33.77250         0.51048
C         42.79640        35.90289         0.60532
C         41.56134        35.19528         0.59586
C         42.79773        37.33096         0.71405
C         41.58966        38.00148         0.97053
C         42.79860        40.19916         0.75507
C         41.63882        39.44412         1.25159
C         42.73912        41.59891         0.64112
C         41.51722        42.31670         0.94418
C         42.57972        44.40637         0.11577
C         41.49009        43.73676         0.75092
C         42.47302        45.82775        -0.12531
C         41.33033        46.56490         0.36036
C         42.27146        48.55450        -0.61946
C         41.18052        47.99196         0.03601
C         43.83616        25.28117         1.05159
C         45.17217        27.41878         1.35415
C         44.00141        26.68881         1.02802
C         45.19381        28.83159         1.29694
C         44.00692        29.51535         0.89891
C         45.27109        31.66874         0.82520
C         44.02692        30.94268         0.77897
C         45.26793        33.07512         0.62770
C         44.02677        33.78154         0.56126
C         45.26485        35.91813         0.44062
C         44.02832        35.20079         0.52767
C         45.25798        37.34109         0.40523
C         44.03026        38.05886         0.57430
C         45.19074        40.22015         0.21892
C         43.99979        39.48365         0.49730
C         45.13696        41.59753        -0.04820
C         43.88479        42.30338         0.12602
C         44.84066        44.27949        -1.02187
C         43.75541        43.66328        -0.23101
C         44.66700        45.77214        -1.39494
C         43.52104        46.49897        -0.84640
C         43.27817        47.85844        -0.96127
C         47.56459        27.43951         1.80307
C         46.44816        26.89766         1.74544
C         47.75630        28.88651         1.91235
C         46.42786        29.61186         1.59794
C         47.72375        31.70850         1.02255
C         46.50614        31.01516         1.11367
C         47.73456        33.08542         0.63239
C         46.50075        33.78526         0.53180
C         47.72434        35.90796         0.18262
C         46.49854        35.20936         0.38127
C         47.70989        37.33708         0.09484
C         46.49208        38.03639         0.26117
C         47.74230        40.25072        -0.19841
C         46.47052        39.50238         0.29022
C         47.52509        41.59883        -0.74798
C         46.31740        42.27325        -0.57722
C         47.33533        44.36076        -1.43397
C         46.18288        43.64572        -1.04361
C         47.02503        45.72903        -1.73533
C         45.97987        46.38612        -1.61684
C         50.27141        29.13340         1.50009
C         49.00793        29.57160         1.59044
C         50.26724        31.72042         0.88870
C         49.02577        31.13936         1.56968
C         50.19160        32.98359         0.31226
C         48.96528        33.76739         0.32701
C         50.13445        35.88690        -0.35592
C         48.94649        35.16100         0.03122
C         50.13657        37.28071        -0.48683
C         48.91667        38.05346        -0.28841
C         49.99437        40.04723        -1.41043
C         48.88501        39.41149        -0.59370
C         49.99156        41.57408        -1.18126
C         48.63214        42.18415        -1.60865
C         49.84996        44.23509        -1.82580
C         48.60546        43.73236        -1.54591
C         51.46220        29.59597         1.25269
C         52.60745        31.73205         0.39707
C         51.52979        30.92935         0.88180
C         52.57554        32.80571        -0.22409
C         51.35793        33.59891        -0.40779
C         52.53414        35.90412        -0.87762
C         51.33563        35.06630        -0.72274
C         52.48010        37.13755        -0.76830
C         51.36737        38.03759        -0.77714
C         52.39724        40.26667        -1.41714
C         51.34680        39.37158        -1.10392
C         52.37530        41.46038        -1.82568
C         51.27071        42.33510        -1.81659
C         50.99235        43.65860        -2.01906
O         46.97265        29.48470         2.97602
O         51.06248        34.07551        -1.74170
O         34.47663        37.57553         1.80737
O         31.67828        35.48772         0.59448
O         38.20865        31.09649         1.44894
O         37.29059        43.85474         3.24889
O         35.99384        35.95840        -1.22663
O         47.41252        40.11565         1.21931
O         41.30695        39.80551         2.66530
O         44.35616        44.74518        -2.35178
O         31.11956        39.71356         1.16784
H         30.29089        39.19388         1.10810
O         40.70180        28.88048        -1.81336
H         41.54555        28.41558        -1.99925
O         38.89787        39.05926         3.13101
H         39.80496        39.02848         3.52012
O         39.93363        47.12223         3.15294
H         39.27641        47.57072         3.72523
O         50.14205        41.75429         0.22373
H         50.09442        42.71052         0.43404
O         32.79760        43.01479        -2.03578
H         32.19000        43.54115        -2.59438
O         33.99729        34.81477         1.59212
H         33.04206        34.74780         1.82189
O         49.07061        31.53540         2.95913
H         48.31072        31.10104         3.41229
O         48.37199        41.85331        -2.98324
H         47.54453        42.29944        -3.25896
O         49.74957        39.78459        -2.80405
H         49.80543        38.81929        -2.95965
