         232
 CSIRO Nanostructure Databank - Neutral Graphene Oxide Data Set
C        -11.02601         0.59894        -0.99475
C         -9.82659         1.36925        -0.72455
C         -8.69575         0.68725        -0.30088
C         -7.38770         1.41045        -0.32707
C         -6.19771         0.66664         0.23735
C         -5.00046         1.45289         0.51057
C         -3.77805         0.73468         0.95206
C         -2.50558         1.48457         0.79203
C         -1.34553         0.76101         0.24820
C         -0.03621         1.49164         0.09654
C          1.25457         0.75996         0.04497
C          2.40051         1.44127        -0.23416
C          3.66883         0.63949        -0.45848
C          4.94108         1.43678        -0.42625
C          6.15012         0.73477        -0.38730
C          7.38749         1.43837        -0.80949
C          8.71730         0.69020        -0.65242
C          9.95491         1.50134        -0.57040
C         11.19423         0.73916        -0.49974
C         -9.78614         2.81552        -0.86698
C         -8.69563         3.57164        -0.46875
C         -7.56211         2.87243         0.29281
C         -6.20198         3.55847         0.07438
C         -5.00360         2.82240         0.55224
C         -3.77853         3.59758         0.89466
C         -2.48352         2.86227         0.77800
C         -1.22486         3.57112         0.62629
C         -0.02991         2.90871         0.45768
C          1.27665         3.59376         0.32593
C          2.32003         2.91723        -0.55018
C          3.65078         3.64727        -0.49778
C          4.86621         2.85803        -0.79875
C          6.18433         3.63845        -0.93108
C          7.43393         2.90399        -0.78363
C          8.65554         3.61128        -0.70770
C          9.90640         2.86840        -0.63689
C         -8.63445         5.00040        -0.60253
C         -7.47635         5.74438        -0.36692
C         -6.19785         5.03578        -0.11823
C         -5.00096         5.81637         0.23815
C         -3.80011         5.09534         0.73973
C         -2.50101         5.80768         0.50128
C         -1.22523         5.05080         0.50630
C          0.05259         5.80127         0.73759
C          1.33390         5.06833         0.44215
C          2.38752         5.80164        -0.36590
C          3.69565         5.02206        -0.42215
C          4.94520         5.74983        -0.54951
C          6.15457         5.09591        -0.73710
C          7.43126         5.79535        -0.69209
C          8.63936         5.02283        -0.68834
C         -7.39162         7.16173        -0.53963
C         -6.19794         7.86680        -0.37335
C         -4.99929         7.18252         0.08533
C         -3.80077         8.00333         0.42104
C         -2.48605         7.29243         0.69253
C         -1.23211         8.01586         0.44306
C          0.03746         7.28329         0.57777
C          1.31145         7.97158         0.26509
C          2.46135         7.26101         0.05199
C          3.79638         7.92140         0.22081
C          4.90838         7.23017        -0.55025
C          6.22793         7.98188        -0.62216
C          7.45314         7.18738        -0.59059
C         -6.10103         9.28592        -0.62961
C         -4.93281         9.99499        -0.51562
C         -3.70332         9.39731        -0.05018
C         -2.48269        10.05692        -0.04349
C         -1.22434         9.38566         0.20992
C          0.05721        10.07868         0.13553
C          1.27937         9.43003         0.20767
C          2.56148        10.10544         0.08180
C          3.75126         9.42333         0.03997
C          5.04865        10.08097         0.00060
C          6.20830         9.40506        -0.20539
C        -11.04823        -0.76857        -0.92057
C         -9.90716        -1.53169        -0.46642
C         -8.75983        -0.74333         0.02423
C         -7.45107        -1.48636         0.31400
C         -6.19366        -0.70429         0.31341
C         -4.89511        -1.47712         0.25894
C         -3.75957        -0.75702         0.97048
C         -2.39112        -1.45064         1.05395
C         -1.31857        -0.73461         0.23861
C         -0.01012        -1.44413         0.09079
C          1.27051        -0.70089         0.14494
C          2.45388        -1.36536         0.30052
C          3.69155        -0.51702         0.53196
C          4.99977        -1.30459         0.53614
C          6.23128        -0.62839         0.06145
C          7.48441        -1.31220         0.15415
C          8.68800        -0.64954        -0.06956
C          9.99773        -1.30565         0.33476
C         11.20635        -0.57784        -0.20487
C         -9.84452        -2.91208        -0.45992
C         -8.62899        -3.64483        -0.16090
C         -7.42854        -2.94373         0.11373
C         -6.19941        -3.65823         0.30111
C         -5.01191        -2.94282         0.58831
C         -3.74193        -3.68604         0.66312
C         -2.45041        -2.95703         0.75969
C         -1.26291        -3.61508         0.06418
C          0.01658        -2.90250         0.53002
C          1.24403        -3.60423         0.02052
C          2.53351        -2.82467         0.07540
C          3.77013        -3.57887         0.28142
C          4.98800        -2.82437         0.62199
C          6.29161        -3.56437         0.61634
C          7.58003        -2.73674         0.70832
C          8.77611        -3.47710         0.10151
C          9.93317        -2.77115        -0.05245
C         -8.59156        -5.06348        -0.22087
C         -7.39596        -5.79285        -0.00898
C         -6.20110        -5.09137         0.24785
C         -4.91914        -5.84503         0.53835
C         -3.73198        -5.04932        -0.01246
C         -2.41785        -5.78234         0.13865
C         -1.21806        -5.11764         0.23903
C          0.05501        -5.79577         0.16003
C          1.27894        -5.06806         0.13896
C          2.52414        -5.69396        -0.01575
C          3.76786        -4.97098         0.05450
C          5.01474        -5.71840        -0.01532
C          6.29245        -5.01715         0.27948
C          7.56767        -5.66315        -0.11690
C          8.71449        -4.89790        -0.19163
C         -7.36559        -7.25253        -0.05578
C         -6.19135        -7.97077        -0.03355
C         -4.91089        -7.28088         0.05513
C         -3.73627        -7.94028        -0.16808
C         -2.44921        -7.21486        -0.19456
C         -1.15702        -7.97466        -0.17326
C          0.09394        -7.23140         0.11116
C          1.29522        -7.90907         0.05232
C          2.51901        -7.14598        -0.22927
C          3.81957        -7.86684        -0.41003
C          5.06172        -7.08469        -0.21524
C          6.32907        -7.79029        -0.30595
C          7.52474        -7.08365        -0.33454
C         -6.12851        -9.42913        -0.10036
C         -4.96865       -10.09548        -0.29222
C         -3.67759        -9.38514        -0.62067
C         -2.40815       -10.10452        -0.18275
C         -1.16191        -9.46108        -0.07877
C          0.07656       -10.11433         0.04699
C          1.35957        -9.38232         0.37388
C          2.66551       -10.03922        -0.04087
C          3.82557        -9.34562        -0.23716
C          5.13227        -9.96690        -0.37216
C          6.28544        -9.23704        -0.42294
O          6.29207        -4.56592         1.70303
O         -3.92372         4.48525         2.06260
O          3.57177         0.09973         1.83429
H          3.85748        -0.57062         2.49661
O          1.81758         4.23359         1.52907
O          1.83294         3.04190        -1.91284
H          2.46840         2.60306        -2.51537
O          3.06496        -7.47826        -1.60687
O         -3.58125        -9.38219        -2.08597
H         -2.85087        -8.75003        -2.30508
O          3.61018         0.06892        -1.79617
H          3.85543         0.76095        -2.44586
O          5.33152         7.79213        -1.81077
O         -2.96143        -3.67971         1.91319
O         10.14884        -1.22456         1.78168
H          9.37468        -1.69894         2.18322
O         -3.94457        -4.86734        -1.42742
H         -3.13464        -4.42989        -1.78951
O         -4.75374        -5.88880         1.98167
H         -5.57185        -6.26000         2.37233
O         -8.35913        -1.07247         1.39611
O          7.84913        -2.58446         2.12974
H          7.49059        -3.39199         2.57018
O          5.42421         3.17577        -2.12423
O         -4.06024        -0.04563         2.19724
O          5.02910        -1.98568         1.84405
O         -7.09907         1.59694        -1.73145
H         -6.49257         2.36545        -1.85816
O         -5.95607         4.05682        -1.28346
O          1.44175        -9.41371         1.86445
H          0.56706        -9.14077         2.21625
O          1.87103         5.83771        -1.72812
H          2.57469         6.18095        -2.31817
O         -1.91184        -1.30039         2.41548
H         -2.66984        -0.97494         2.96253
O         -1.46807        -3.50072        -1.37142
H         -0.59555        -3.47460        -1.82154
O          4.16856         7.67997         1.62377
H          3.41005         7.94182         2.18866
O         -3.30064         7.78844         1.78738
O          0.12543        -3.00607         1.96146
H         -0.64167        -2.54489         2.38934
O         -4.46822        -1.44892        -1.15084
H         -5.09377        -1.98911        -1.67938
O         -7.84712         2.79975         1.61567
O          1.82489        -3.14517        -1.22029
O          8.05079         0.80519        -1.95687
O         -1.70478        -7.49956        -1.46653
O         -0.92314         1.27792        -1.05558
O         -1.87375         5.44805        -0.77287
O         -0.89829        -1.22464        -1.05006
O          0.10620         6.61082         1.93806
H         12.16332        -1.12141        -0.18612
H         12.13233         1.26125        -0.74423
H         10.84295         3.44499        -0.59528
H          9.59810         5.56154        -0.65390
H          8.40698         7.70047        -0.39412
H          7.16997         9.93807        -0.15538
H          5.08044        11.16447         0.19413
H          2.56398        11.20356        -0.00503
H          0.04086        11.17137         0.00154
H         -2.45022        11.11412        -0.34946
H         -4.92110        11.06193        -0.78448
H         -7.00849         9.80337        -0.97521
H         -8.29875         7.71151        -0.83475
H         -9.53346         5.53003        -0.96035
H        -10.67455         3.31672        -1.28530
H        -11.92652         1.13724        -1.32564
H        -11.96001        -1.31559        -1.20372
H        -10.72737        -3.49093        -0.77249
H         -9.52123        -5.61184        -0.43604
H         -8.32408        -7.78345        -0.16065
H         -7.06709        -9.98862         0.03696
H         -4.97161       -11.19566        -0.33222
H         -2.42764       -11.20620        -0.19016
H          0.09222       -11.21423         0.10016
H          2.71107       -11.13718         0.04137
H          5.18390       -11.06556        -0.40805
H          7.24760        -9.76345        -0.51396
H          8.46999        -7.62164        -0.50298
H          9.65707        -5.38426        -0.48954
H         10.84363        -3.27209        -0.41896
