         404
 CSIRO Nanostructure Databank - Neutral Graphene Oxide Data Set
C          1.37353         2.00968         0.18134
C          1.25658         3.35891         0.43891
C          2.59711         1.31887         0.29174
C          2.39089         4.12892         0.96310
C          1.21035         6.34573         0.83977
C          1.18218         7.74374         0.82701
C          2.41098         5.61499         0.87499
C          2.35883         8.50300         0.94264
C          1.17634        10.68229         1.13282
C          1.15501        12.05699         1.03309
C          2.37054         9.93892         0.94038
C          2.31714        12.80025         0.67562
C          1.12759        15.00753         0.79793
C          1.14763        16.42575         0.84929
C          2.25779        14.24738         0.52451
C          2.29898        17.16240         0.61187
C          2.40450        18.57118         0.88556
C          3.79237         1.97724         0.67633
C          3.71415         3.40852         1.09091
C          5.01799         1.33192         0.71241
C          4.95974         4.19999         0.90916
C          3.65248         6.30490         0.89189
C          3.62101         7.76704         1.05492
C          4.90219         5.63548         0.77853
C          4.93137         8.56390         0.75156
C          3.57942        10.66651         0.63536
C          3.52557        12.10107         0.45131
C          4.78017         9.96942         0.40257
C          4.74919        12.82707         0.14856
C          3.46342        14.94215         0.04556
C          3.48079        16.48331         0.07175
C          4.75647        14.24269         0.07134
C          4.78760        17.16475         0.09678
C          3.57824        19.24936         0.72499
C          4.81475        18.59806         0.33266
C          6.22630         2.06554         1.23601
C          6.14188         3.50430         0.77255
C          7.50868         1.36756         0.89371
C          7.29535         4.18458         0.17725
C          6.12526         6.36231         0.50323
C          6.12587         7.78778         0.35115
C          7.31905         5.65610         0.20976
C          7.26988         8.45017        -0.10632
C          5.92158        10.65962        -0.21518
C          5.96054        12.13705        -0.09204
C          7.18161         9.88490        -0.47536
C          7.17567        12.84541        -0.17064
C          5.97064        14.96925        -0.01128
C          5.95647        16.42790        -0.02449
C          7.19937        14.24725        -0.03542
C          7.22302        17.14978        -0.22961
C          5.99676        19.31486         0.28852
C          7.25483        18.69710        -0.11568
C          8.63211         1.98639         0.34329
C          8.55453         3.41557        -0.09120
C          9.85352         1.32729         0.16775
C          9.81834         4.18186        -0.17555
C          8.53156         6.33243        -0.08299
C          8.51412         7.75418        -0.23619
C          9.77835         5.61338        -0.19295
C          9.74102         8.44260        -0.48724
C          8.45771        10.65961        -0.64079
C          8.45749        12.08359        -0.16095
C          9.75223         9.92005        -0.67704
C          9.76585        12.80623        -0.09963
C          8.48697        14.95461         0.19215
C          8.49415        16.46647         0.10573
C          9.78127        14.28457        -0.06396
C          9.76248        17.18361        -0.09117
C          8.55160        19.32637         0.12969
C          9.76716        18.62095        -0.01949
C         10.95150         2.01043        -0.60366
C         11.01806         3.48208        -0.27658
C         12.28229         1.33240        -0.53502
C         12.27238         4.15935        -0.18919
C         10.99885         6.32172        -0.32977
C         10.95157         7.74362        -0.50338
C         12.25472         5.60094        -0.23127
C         12.20834         8.49921        -0.68131
C         11.02166        10.66527        -0.45613
C         11.02821        12.08792        -0.38980
C         12.22368         9.97008        -0.49156
C         12.22574        12.80206        -0.42748
C         10.94659        14.99257        -0.19043
C         10.96513        16.45322        -0.11702
C         12.22237        14.29868        -0.63381
C         12.19812        17.14783        -0.02712
C         11.02385        19.28933         0.00109
C         12.24068        18.57709         0.00357
C         13.48825         1.97452        -0.32810
C         13.49638         3.43162        -0.07312
C         14.68618         1.20129        -0.62072
C         14.70098         4.18323         0.10999
C         13.47283         6.30103        -0.19354
C         13.49031         7.75045        -0.45753
C         14.70891         5.61806        -0.02028
C         14.66005         8.53161         0.01174
C         13.46064        10.68011        -0.39176
C         13.46657        12.10681        -0.39877
C         14.68673         9.98170        -0.21570
C         14.70897        12.81513        -0.25159
C         13.48632        14.95218        -0.11864
C         13.43177        16.38159         0.19246
C         14.69145        14.27231        -0.09862
C         14.75996        17.16085         0.21063
C         13.50193        19.27318        -0.02754
C         14.73690        18.62021        -0.03808
C         15.95652         1.51513        -0.13100
C         15.94793         3.59167         0.42363
C         17.24409         1.21599        -0.60635
C         17.21256         4.19065         0.20221
C         15.94867         6.30828         0.01393
C         15.95914         7.77406         0.16870
C         17.19896         5.63521         0.03621
C         17.18564         8.53762        -0.06851
C         15.90039        10.67108        -0.06587
C         15.90278        12.10516        -0.10394
C         17.14001         9.92138        -0.03668
C         17.14729        12.82469         0.26986
C         15.95459        14.99985        -0.04536
C         15.96108        16.39157        -0.09420
C         17.21373        14.28756         0.05915
C         17.17112        17.11996        -0.46335
C         15.97819        19.28810        -0.20467
C         17.20877        18.59483        -0.32795
C         18.41711         1.98891        -0.28002
C         18.39677         3.39594         0.09311
C         19.66741         1.35848        -0.47247
C         19.68352         4.09422         0.14947
C         18.39700         6.36771        -0.14964
C         18.41203         7.80230        -0.32733
C         19.66479         5.66877        -0.00326
C         19.60091         8.49324        -0.56602
C         18.37912        10.69366        -0.25595
C         18.43995        12.06297         0.33116
C         19.63715         9.96224        -0.59323
C         19.82295        12.70470         0.52353
C         18.43582        14.92557         0.00379
C         18.49240        16.33359        -0.41584
C         19.72588        14.31380         0.51580
C         19.73762        17.10759        -0.30918
C         18.45011        19.23627        -0.39175
C         19.70359        18.53018        -0.40752
C         20.92599         2.02626        -0.40324
C         20.94022         3.43698        -0.21026
C         22.15646         1.33170        -0.51225
C         22.16393         4.16866        -0.32725
C         20.87771         6.27086        -0.60226
C         20.84371         7.77396        -0.85938
C         22.17115         5.59007        -0.47518
C         22.12859         8.49226        -0.83432
C         20.93609        10.66784        -0.54856
C         20.95239        12.10057        -0.31522
C         22.09946         9.93389        -0.76540
C         22.14274        12.80446        -0.37716
C         20.95424        15.00350        -0.01554
C         20.96986        16.39951        -0.22700
C         22.21474        14.24412        -0.01076
C         22.21018        17.13117        -0.39138
C         20.93186        19.23137        -0.46954
C         22.17817        18.55579        -0.50690
C         23.39633         2.01756        -0.47496
C         23.39273         3.45460        -0.44476
C         24.63752         1.33138        -0.50549
C         24.61736         4.17324        -0.58911
C         23.36606         6.31552        -0.72795
C         23.33269         7.77875        -0.86815
C         24.58876         5.59636        -0.73132
C         24.57786         8.53080        -0.83637
C         23.36075        10.65155        -0.97789
C         23.37547        12.16038        -0.83959
C         24.61104         9.90109        -0.83713
C         24.68882        12.84496        -0.70271
C         23.48908        14.99662        -0.30255
C         23.44679        16.45617        -0.51444
C         24.70862        14.26269        -0.71153
C         24.62966        17.15361        -0.80705
C         23.41169        19.25227        -0.67162
C         24.61387        18.56940        -0.84168
C         25.86980         2.02603        -0.56220
C         25.84406         3.44825        -0.67090
C         27.12182         1.32440        -0.45162
C         27.11013         4.16680        -0.87267
C         25.85925         6.31210        -0.95672
C         25.86007         7.80775        -0.96514
C         27.13534         5.62268        -0.70666
C         27.12926         8.51626        -0.69873
C         25.85106        10.64975        -0.41739
C         25.88079        12.12111        -0.75485
C         27.13792         9.92107        -0.68376
C         27.12717        12.81091        -0.78965
C         25.90510        14.95449        -0.87684
C         25.88426        16.42169        -1.23277
C         27.13644        14.23932        -0.87394
C         27.15556        17.13779        -0.85190
C         25.89542        19.32930        -1.12267
C         27.16104        18.55003        -0.80893
C         28.36461         1.97077        -0.41692
C         28.42247         3.41431        -0.73073
C         29.59475         1.32508        -0.16413
C         29.61367         4.19258        -0.33919
C         28.32087         6.31440        -0.48769
C         28.31721         7.77791        -0.48245
C         29.55136         5.58705        -0.26218
C         29.51119         8.50412        -0.28118
C         28.35965        10.63097        -0.70747
C         28.37142        12.09175        -0.77851
C         29.55339         9.88546        -0.55156
C         29.57637        12.81377        -0.77132
C         28.36993        14.96179        -0.78894
C         28.36233        16.40678        -0.71776
C         29.59035        14.24894        -0.69433
C         29.59130        17.10213        -0.53137
C         28.35592        19.23103        -0.57731
C         29.59018        18.53406        -0.44106
C         30.81944         2.04438        -0.07577
C         30.82171         3.48474        -0.05908
C         32.05797         1.36453         0.01980
C         32.04553         4.20171         0.16489
C         30.72926         6.30751         0.26508
C         30.68651         7.81683         0.29575
C         32.03924         5.61882         0.30533
C         31.96344         8.58091         0.44020
C         30.86379        10.54139        -0.68525
C         30.86527        12.12110        -0.84795
C         32.03232         9.92532        -0.12863
C         32.09408        12.83426        -0.52775
C         30.82984        14.95950        -0.55364
C         30.82595        16.38318        -0.45928
C         32.07274        14.25267        -0.46238
C         32.05173        17.08917        -0.28474
C         30.81292        19.21990        -0.25878
C         32.04451        18.52534        -0.17951
C         33.28228         2.05637         0.11129
C         33.28314         3.49648         0.22229
C         34.52071         1.36878         0.09979
C         34.50079         4.20643         0.38844
C         33.25014         6.32423         0.49269
C         33.26747         7.81419         0.58485
C         34.47639         5.61527         0.54818
C         34.51440         8.53580         0.17732
C         33.28711        10.70111         0.11974
C         33.31204        12.12374        -0.39033
C         34.51431         9.86002        -0.14571
C         34.52105        12.82151        -0.32716
C         33.30142        14.95733        -0.31193
C         33.28875        16.38272        -0.21788
C         34.54044        14.24497        -0.29078
C         34.51595        17.07933        -0.05112
C         33.27201        19.20647        -0.00398
C         34.50420        18.51233         0.06498
C         35.74680         2.05215         0.18962
C         35.76364         3.48671         0.35778
C         36.98028         1.34761         0.15340
C         36.98654         4.15374         0.46126
C         35.74323         6.35308         0.79972
C         35.78438         7.82003         0.45320
C         37.05948         5.58578         0.92978
C         37.05854         8.44362         0.07746
C         35.76214        10.56626        -0.52744
C         35.79407        12.07727        -0.49790
C         37.05097         9.80958        -0.43300
C         37.06408        12.78082        -0.20640
C         35.77851        14.93775        -0.13958
C         35.75518        16.36455         0.00217
C         37.02289        14.20238        -0.03217
C         36.96437        17.08618         0.17263
C         35.72373        19.19406         0.29032
C         36.94884        18.49906         0.37959
C         38.20149         2.01745         0.23226
C         38.21977         3.44744         0.37476
C         39.45363         1.30554         0.20946
C         39.46031         4.14694         0.41448
C         38.28725         6.32144         0.41941
C         38.27999         7.74141         0.17816
C         39.49675         5.59207         0.38773
C         39.51551         8.46301         0.12334
C         38.35596        10.62119        -0.27834
C         38.27564        12.08226        -0.06319
C         39.53399         9.87365         0.18010
C         39.46226        12.75884         0.36087
C         38.23266        14.89049         0.21443
C         38.23326        16.36052         0.16131
C         39.44420        14.18735         0.47954
C         39.48639        17.10935         0.68903
C         38.12613        19.17518         0.84469
C         39.29890        18.49697         1.14779
C         40.64037         1.97348         0.28618
C         40.68242         3.41207         0.35136
C         41.90420         4.10317         0.30566
C         40.75962         6.25437         0.27734
C         40.84209         7.75047         0.07692
C         41.93311         5.50393         0.25706
C         41.84590         8.45462         0.96251
C         40.67715        10.58353         0.63455
C         40.65585        12.01923         0.68115
C         41.78435         9.79699         1.14375
C         41.80614        12.74948         1.07341
C         40.61341        14.87994         0.95418
C         40.57655        16.29712         1.24640
C         41.77960        14.12561         1.21506
C         41.50312        16.93201         2.06719
C         40.34111        19.07962         1.93313
C         41.40528        18.31573         2.36502
O         27.88885         3.72751        -2.05485
O         32.60775         8.38802         1.76683
O          8.44422        15.78122         1.40796
O         14.09933        16.75758         1.44760
O          7.24250        17.96742        -1.41579
O         35.70441        11.32444        -1.77592
O          2.91362         3.65564         2.28362
O         23.13192        14.60890         1.08731
O         19.85417         5.02551         1.27584
O         17.80005        16.61530        -1.68540
O         17.64875        12.25343         1.53338
O         20.67791         6.79716        -1.95341
O          9.09594        10.40490        -1.92468
O          4.49824         8.25373         2.11560
O         31.02206        11.21076        -1.98001
O         23.30110        11.53157        -2.17323
O          9.13849        12.23098         1.13224
O         39.25136        16.91558        -0.73501
O         15.93857         2.34106         1.02244
O         35.68019         7.34744         1.88007
O          3.24640        15.73799        -1.16533
O         18.79459        10.60697        -1.66298
O         13.05311         8.08221        -1.81808
O         37.91118        10.09429        -1.57081
O          6.24222        10.14920        -1.57853
O         25.89550         7.06485        -2.24135
O         20.26580        12.31237         1.79692
O          7.62583         3.64440        -1.20095
O         30.36767         7.05425         1.49902
O         15.15063         8.18197         1.34155
O         25.89221        20.59078        -0.44924
H         25.84933        20.42565         0.51468
O         12.24315        14.50061        -2.09386
H         13.00279        13.99558        -2.45509
O         10.55244         1.92800        -2.02673
H          9.69551         2.39981        -2.12070
O         33.33884        10.94104         1.58481
H         33.16581        10.06350         2.02101
O         19.84355        14.69999         1.90868
H         20.06689        13.82971         2.38228
O         25.74618        10.63659         1.06402
H         26.45577        11.21272         1.42117
O         25.83788        16.45325        -2.70820
H         26.61822        15.95954        -3.03960
O          6.15016         2.08488         2.70749
H          5.26217         2.42286         2.95586
O         41.34886         7.91040        -1.30078
H         41.27618         8.86205        -1.52917
O         37.31776         5.45827         2.37013
H         36.96123         6.28020         2.78416
H          0.49281         1.45811        -0.17810
H          0.31021         3.87204         0.21854
H          2.63911         0.25085         0.03538
H          0.25356         5.80696         0.81182
H          0.20886         8.24721         0.74923
H          0.24862        10.15634         1.39667
H          0.20841        12.58236         1.21549
H          0.19200        14.51135         1.09067
H          0.24106        16.94674         1.19051
H          1.50413        19.10480         1.22418
H          5.10717         0.29234         0.36306
H          3.61488        20.33013         0.92539
H          7.59365         0.31634         1.20983
H          6.01292        20.35856         0.63725
H          9.96743         0.28097         0.48745
H          8.57860        20.39437         0.39246
H         12.29651         0.26427        -0.80148
H         11.04246        20.38810         0.03990
H         14.57484         0.36392        -1.32599
H         13.47874        20.36894        -0.12605
H         17.37417         0.37347        -1.30194
H         15.98572        20.38809        -0.24146
H         19.67166         0.28328        -0.70546
H         18.48208        20.33584        -0.36703
H         22.14848         0.23645        -0.61312
H         20.91695        20.32888        -0.54547
H         24.64133         0.23155        -0.48071
H         23.40830        20.35163        -0.71170
H         27.08655         0.23574        -0.29415
H         25.91713        19.56113        -2.22408
H         29.61446         0.23153        -0.04400
H         28.34876        20.33030        -0.53786
H         32.06812         0.26524        -0.02200
H         30.80980        20.31789        -0.19143
H         34.52316         0.27346        -0.00323
H         33.26990        20.30318         0.08457
H         36.96545         0.25129         0.06253
H         35.71148        20.28423         0.43779
H         39.43393         0.20895         0.12902
H         38.03282        20.23408         1.12975
H         41.59206         1.42263         0.26311
H         42.84524         3.53595         0.26401
H         42.90129         6.01681         0.17051
H         42.69633         7.88400         1.36427
H         42.57452        10.29718         1.72190
H         42.74388        12.21739         1.28053
H         42.69655        14.64028         1.53301
H         42.33296        16.36308         2.50857
H         40.26061        20.13666         2.22425
H         42.18113        18.77307         2.99466
