         225
 CSIRO Nanostructure Databank - Neutral Graphene Oxide Data Set
C        -11.10711         0.42676        -1.16726
C         -9.94076         1.25370        -0.92829
C         -8.71222         0.53622        -0.52270
C         -7.48559         1.33884        -0.18856
C         -6.33735         0.69928         0.47013
C         -5.15405         1.42028         0.68486
C         -3.91801         0.75684         0.82579
C         -2.66215         1.51059         0.71741
C         -1.37780         0.76069         0.80048
C         -0.15116         1.49343         1.19388
C          1.05222         0.82239         1.15689
C          2.31879         1.49846         1.31361
C          3.57136         0.74097         1.37838
C          4.60543         1.61057         2.07565
C          6.44295         0.55200         1.19327
C          7.34475         1.43754         0.60617
C          8.02255         0.99188        -0.53306
C          9.99451         1.94431        -0.36242
C         10.91989         0.82131        -0.54724
C         -9.86176         2.59643        -1.21954
C         -8.66467         3.37840        -0.96226
C         -7.56231         2.78640        -0.33593
C         -6.44096         3.60502         0.13807
C         -5.18743         2.90880         0.67016
C         -3.92976         3.65955         0.63892
C         -2.73351         2.95193         1.20190
C         -1.44314         3.70333         1.06920
C         -0.22610         2.94703         1.43994
C          1.12768         3.69677         1.42754
C          2.35610         2.90306         1.32157
C          3.60194         3.63825         1.16627
C          4.79948         2.93468         1.35034
C          6.06981         3.53884         0.89835
C          7.40787         2.85912         1.04188
C          8.68733         3.63609         0.92605
C          9.96259         2.89205         0.60950
C         -8.59045         4.76508        -1.29858
C         -7.41463         5.51311        -1.11553
C         -6.28194         4.95529        -0.41384
C         -5.07765         5.65031        -0.26978
C         -3.88648         5.01453         0.30365
C         -2.65880         5.75226         0.47533
C         -1.44860         5.08819         0.88750
C         -0.15959         5.83572         1.05454
C          1.12501         5.12204         1.06685
C          2.35209         5.79919         0.90195
C          3.57453         5.06080         0.96900
C          4.85087         5.77636         0.99241
C          6.09657         5.03073         0.67831
C          7.39895         5.76247         0.61308
C          8.59116         5.09783         0.68577
C         -7.30318         6.84096        -1.62078
C         -6.12151         7.55917        -1.49209
C         -4.98010         6.98249        -0.81610
C         -3.79587         7.71280        -0.69328
C         -2.67882         7.18759         0.12621
C         -1.37544         7.98142         0.12547
C         -0.11094         7.33118         0.60356
C          1.17119         7.88401         0.18696
C          2.38914         7.22127         0.52780
C          3.60643         7.89485         0.31426
C          4.87717         7.28787         0.65847
C          6.14215         7.84272         0.11499
C          7.32398         7.15522         0.21574
C         -6.00750         8.88921        -2.03256
C         -4.83581         9.57832        -1.95008
C         -3.68097         9.00956        -1.30090
C         -2.45344         9.67038        -1.36783
C         -1.26364         9.12039        -0.81490
C         -0.02149         9.63689        -1.13300
C          1.20339         9.09716        -0.60193
C          2.40165         9.73961        -0.85133
C          3.62544         9.35160        -0.08571
C          4.90984         9.78439        -0.74100
C          6.06942         9.11428        -0.58325
C        -11.10024        -0.92907        -1.00134
C         -9.98580        -1.66196        -0.41737
C         -8.84339        -0.83797         0.06104
C         -7.60929        -1.50721         0.58675
C         -6.26886        -0.80138         0.37230
C         -5.15653        -1.39998         1.21307
C         -3.86194        -0.66058         1.19416
C         -2.58790        -1.41091         1.13686
C         -1.39826        -0.72124         0.96123
C         -0.14690        -1.42043         0.87672
C          1.08387        -0.59958         0.72738
C          2.41498        -1.29333         0.61536
C          3.68267        -0.60139         1.00865
C          4.91375        -1.39792         0.80250
C          6.19651        -0.71921         0.65495
C          7.19146        -1.23467        -0.22881
C          8.11597        -0.36990        -0.82711
C          9.26236        -0.81502        -1.71664
C         10.59956        -0.38257        -1.08662
C         -9.95830        -3.01982        -0.28909
C         -8.89355        -3.72457         0.53793
C         -7.54336        -2.98742         0.48493
C         -6.28721        -3.54068         0.50982
C         -5.15902        -2.91046         1.30416
C         -3.81262        -3.56144         1.06262
C         -2.61087        -2.86818         1.11834
C         -1.33470        -3.58641         1.01312
C         -0.10071        -2.81249         0.88628
C          1.17294        -3.49692         0.68975
C          2.39189        -2.77260         0.57339
C          3.60833        -3.43367         0.30975
C          4.86552        -2.72498         0.35800
C          6.15732        -3.55165         0.10621
C          7.44393        -2.71509        -0.23492
C          8.25178        -3.13376        -1.45423
C          9.16798        -2.29352        -2.00713
C         -8.89399        -5.24637         0.41805
C         -7.92732        -5.99022        -0.16763
C         -6.04140        -4.87088         0.02650
C         -5.03846        -5.69205         0.45319
C         -3.85971        -5.03890         1.08978
C         -2.54036        -5.77634         1.14588
C         -1.30835        -4.97386         0.99843
C         -0.00842        -5.74269         0.93549
C          1.19468        -4.90716         0.57743
C          2.37182        -5.57669         0.18470
C          3.57173        -4.83224         0.00873
C          4.75769        -5.49223        -0.41021
C          5.84697        -4.60952        -0.98062
C          7.04311        -5.28002        -1.66769
C          8.12249        -4.49254        -1.94597
C         -7.60915        -7.41402        -0.11037
C         -6.32433        -7.90248        -0.14788
C         -5.04187        -7.12668         0.02850
C         -3.78827        -7.90922         0.30652
C         -2.51321        -7.29302         0.92001
C         -1.37871        -7.74664         0.01973
C         -0.10931        -6.96539         0.03622
C          1.13921        -7.66727        -0.30836
C          2.35412        -6.98229        -0.18967
C          3.57463        -7.63895        -0.53812
C          4.76615        -6.88451        -0.42082
C          6.29438        -7.64747        -1.83289
C          6.90307        -6.56062        -2.38508
C         -6.16506        -9.33294        -0.40735
C         -5.01033       -10.01747        -0.29899
C         -3.78447        -9.44073         0.35863
C         -2.48582        -9.96122        -0.22411
C         -1.34395        -9.19526        -0.33522
C         -0.10615        -9.74395        -0.78889
C          1.10502        -9.01951        -0.77337
C          2.32698        -9.60547        -1.23613
C          3.54846        -8.93735        -1.17552
C          4.64161        -9.48216        -1.98735
C          5.79316        -8.88227        -2.41217
O          4.97217         2.74802         4.07309
H          5.75402         2.15228         4.19166
O          9.16880        -0.14863        -2.99947
H          9.12867         0.81870        -2.81449
O         -6.18933         3.47649         1.58574
O         -0.19048         6.94571         2.00300
O         -2.26068        -7.88342         2.21783
H         -2.66604        -7.28105         2.88584
O         -1.90564         1.26310        -0.51136
O          0.38573         3.41486         2.67447
O         -4.73949        -0.81131         2.45647
O          0.23097        -6.27197         2.27753
H          0.32025        -5.51503         2.89387
O         -4.04568        -7.40917        -1.03151
O          6.40535        -4.24217         1.33492
H          7.27140        -3.85986         1.66490
O         -9.31256        -3.50986         1.92231
H         -9.24044        -2.54167         2.11243
O         -2.33714         8.15083         1.19944
O          5.81301         0.92633         2.37597
O          5.20664        -3.85770        -2.05557
H          5.04423        -4.46562        -2.80670
O          8.31318        -2.76698         0.88083
O          8.14493         3.19612         2.24655
O         -3.84425        -9.91315         1.73118
H         -3.12304        -9.44561         2.22441
O          5.91797         4.12710        -0.45893
O         -2.96217         2.79736         2.64463
H         -3.03783         3.69127         3.04195
O          3.56246        10.11103         1.18570
H          2.80508         9.75850         1.70103
O         -3.32454        -5.54288         2.37631
O         -1.06240        -6.83670        -1.07178
O          4.01953         1.89544         3.39308
O          8.85770         1.89880        -1.21617
O          5.98657        -7.54912        -0.45777
O          4.98437         6.77613         2.03166
O         -5.84638        -1.15716        -0.98107
H         -6.40939        -0.63142        -1.60592
O         -8.56337        -0.89561         1.51281
O         -6.95500        -5.30695        -0.93431
O          1.74754        -0.73481        -0.58380
O         -5.47871        -3.25886         2.68197
H         -5.10440        -2.54129         3.24642
O         -7.68635         0.64466        -1.56881
H         11.39844        -1.14258        -1.09669
H         11.92816         0.94298        -0.11768
H         10.79990         2.99456         1.31590
H          9.52587         5.65838         0.52991
H          8.25300         7.63610        -0.12854
H          6.99620         9.49799        -1.03689
H          4.89646        10.73416        -1.29654
H          2.41195        10.66079        -1.45296
H          0.04291        10.51104        -1.79760
H         -2.37955        10.60437        -1.94456
H         -4.74686        10.58414        -2.38523
H         -6.88336         9.33079        -2.52936
H         -8.16096         7.29029        -2.14266
H         -9.44942         5.23827        -1.79650
H        -10.74437         3.12060        -1.61620
H        -12.00833         0.91610        -1.56576
H        -11.99487        -1.50779        -1.27544
H        -10.82244        -3.60802        -0.63565
H         -9.65249        -5.74733         1.03705
H         -8.43728        -8.14167        -0.13029
H         -7.05931        -9.85827        -0.77905
H         -4.98449       -11.08648        -0.55927
H         -2.43533       -11.03311        -0.47561
H         -0.08879       -10.79534        -1.11455
H          2.27821       -10.59397        -1.71802
H          4.38721       -10.43969        -2.47217
H          6.36743        -9.36472        -3.21878
H          7.29644        -6.61749        -3.41278
H          8.91790        -4.87817        -2.60447
H          9.78750        -2.65986        -2.84245
