         344
 CSIRO Nanostructure Databank - Neutral Graphene Oxide Data Set
C          1.43117         1.90762         0.41583
C          1.36813         3.34051         0.47085
C          2.60570         1.23345         0.54412
C          2.48627         4.12147         0.63930
C          1.22449         6.29591         0.62299
C          1.19291         7.67998         0.47670
C          2.43872         5.58725         0.53530
C          2.37525         8.42169         0.32296
C          1.20422        10.64464         0.72406
C          1.23990        11.98850         0.89132
C          2.31993         9.91264         0.02506
C          2.41219        12.77735         0.58145
C          1.23104        14.93699         1.04845
C          1.25564        16.29471         1.26613
C          2.41862        14.20627         0.71390
C          2.46616        17.03521         1.15008
C          2.51644        18.43595         1.40656
C          3.83784         1.94645         0.89673
C          3.77741         3.46744         0.96206
C          5.13070         1.30085         0.65604
C          5.07435         4.26889         0.85462
C          3.63539         6.31728         0.35333
C          3.59974         7.72622         0.27826
C          4.86560         5.51252        -0.01480
C          4.87318         8.49041         0.25488
C          3.63448        10.65177         0.18416
C          3.62218        12.07834         0.28733
C          4.85386         9.96574         0.09835
C          4.85612        12.80065         0.20038
C          3.62924        14.92969         0.53696
C          3.65678        16.35313         0.75398
C          4.85737        14.22662         0.27357
C          4.85601        17.08830         0.61776
C          3.69629        19.13574         1.29825
C          4.90609        18.47980         0.90026
C          6.29683         2.03398         0.38301
C          6.26714         3.47456         0.31107
C          7.50617         1.35595         0.06871
C          7.38273         4.16730        -0.15787
C          6.15533         6.29052        -0.13625
C          6.15418         7.75977         0.00865
C          7.32288         5.61656        -0.32968
C          7.36837         8.51230        -0.37807
C          6.09139        10.65683         0.03975
C          6.08890        12.09190         0.07328
C          7.34633         9.95871        -0.19338
C          7.30955        12.82036         0.07989
C          6.08179        14.93350         0.15972
C          6.05971        16.43475         0.01201
C          7.29455        14.22466         0.09469
C          7.34145        17.13207         0.36942
C          6.12857        19.19844         0.78895
C          7.36064        18.52688         0.54444
C          8.67478         2.06142        -0.27853
C          8.62663         3.48850        -0.39867
C          9.90601         1.38367        -0.51430
C          9.83023         4.20372        -0.67438
C          8.50295         6.33493        -0.93791
C          8.51652         7.81725        -0.65966
C          9.83419         5.65841        -0.71566
C          9.77834         8.52200        -0.92976
C          8.53763        10.66572        -0.24326
C          8.60420        12.06978         0.29211
C          9.77377        10.03383        -0.70157
C          9.84927        12.79849        -0.13737
C          8.61328        14.92848         0.31944
C          8.60927        16.43367        -0.01149
C          9.76409        14.26536        -0.44192
C          9.87725        17.11375         0.52399
C          8.61276        19.24568         0.40431
C          9.83521        18.59997         0.24300
C         11.06364         2.08395        -0.83498
C         11.03124         3.49662        -0.89547
C         12.32813         1.31124        -1.12778
C         12.25174         4.28309        -1.30415
C         11.02142         6.37402        -0.70186
C         11.05621         7.80733        -0.77920
C         12.31990         5.60879        -0.53382
C         12.26442         8.53402        -0.71411
C         11.06475        10.69426        -0.47980
C         11.03933        12.12999        -0.34776
C         12.25979         9.98270        -0.61292
C         12.28486        12.86565        -0.48203
C         11.06944        15.01424        -0.24886
C         11.09573        16.38972        -0.02230
C         12.29050        14.28837        -0.41725
C         12.31377        17.12482        -0.15106
C         11.06497        19.26797         0.04835
C         12.28772        18.56732        -0.08775
C         13.59129         2.14382        -1.13301
C         13.54027         3.51860        -1.15989
C         14.84517         1.44860        -1.20559
C         14.78922         4.29918        -1.49468
C         13.56451         6.41664        -0.85442
C         13.52996         7.84213        -0.73898
C         14.76870         5.75792        -1.07662
C         14.75113         8.57249        -0.72166
C         13.50886        10.70676        -0.57168
C         13.49958        12.14249        -0.53753
C         14.73517        10.00835        -0.61619
C         14.73660        12.86471        -0.55986
C         13.53066        15.00055        -0.47814
C         13.53188        16.44475        -0.40387
C         14.73068        14.28331        -0.60723
C         14.75448        17.17677        -0.50287
C         13.51732        19.26663        -0.24662
C         14.72292        18.60014        -0.42786
C         16.07208         2.12299        -1.18800
C         16.05122         3.61847        -0.94956
C         17.31303         1.46960        -1.21325
C         17.31834         4.32259        -1.45484
C         16.01874         6.46930        -1.02375
C         15.99701         7.88333        -0.79352
C         17.26287         5.78752        -1.08511
C         17.22891         8.60273        -0.66229
C         15.97232        10.72957        -0.52643
C         15.96592        12.14139        -0.47581
C         17.21563        10.01644        -0.50196
C         17.19709        12.87415        -0.26871
C         16.01905        14.99899        -0.90490
C         16.01334        16.48342        -0.59684
C         17.19679        14.25100        -0.33865
C         17.21450        17.17986        -0.50917
C         15.98378        19.40301        -0.66924
C         17.26472        18.62219        -0.46352
C         18.54832         2.16963        -1.04520
C         18.55782         3.60813        -0.97632
C         19.76685         1.48021        -0.93137
C         19.72181         4.31194        -0.70105
C         18.47585         6.47696        -0.84744
C         18.47008         7.89545        -0.66837
C         19.70650         5.76419        -0.66553
C         19.70603         8.59379        -0.53680
C         18.44712        10.72031        -0.31181
C         18.44880        12.14039        -0.09581
C         19.67329        10.01573        -0.32718
C         19.64074        12.81870         0.17667
C         18.48163        14.97053        -0.25589
C         18.49959        16.45176        -0.39715
C         19.53533        14.28188         0.58127
C         19.72144        17.19276        -0.01686
C         18.46537        19.28680        -0.36473
C         19.72930        18.60085        -0.17963
C         20.98558         2.16874        -0.69779
C         20.97227         3.60314        -0.52548
C         22.20658         1.48049        -0.58608
C         22.15508         4.28850        -0.22458
C         20.90495         6.47410        -0.44124
C         20.93489         7.87748        -0.51317
C         22.06999         5.73799         0.17763
C         22.26378         8.58501        -0.71493
C         20.89955        10.72791        -0.16377
C         20.89254        12.13371         0.10787
C         22.13530        10.07454        -0.41362
C         22.12735        12.83743         0.24708
C         20.85640        15.04046         0.63634
C         20.90409        16.50344         0.32573
C         22.13766        14.27625         0.58327
C         22.13444        17.18861         0.32708
C         20.96443        19.27551        -0.18046
C         22.17387        18.56771        -0.01013
C         23.40558         2.15953        -0.27503
C         23.38443         3.58908        -0.06608
C         24.62159         1.45561        -0.13436
C         24.56936         4.26467         0.33082
C         23.37944         6.48222         0.15780
C         23.44997         7.84730        -0.02983
C         24.57793         5.71578         0.51048
C         24.67967         8.51692         0.37605
C         23.24325        10.89698        -0.56388
C         23.34700        12.22071        -0.07358
C         24.99538         9.79977        -0.01279
C         24.65320        12.87333         0.20538
C         23.38204        15.03546         0.16369
C         23.40732        16.47551         0.75723
C         24.64158        14.23143         0.40348
C         24.68015        17.12325         0.25453
C         23.44892        19.19994        -0.25847
C         24.64039        18.49542        -0.24086
C         25.79792         2.11242         0.26050
C         25.76772         3.52809         0.53096
C         27.01953         1.39334         0.40930
C         26.95968         4.16876         0.98317
C         25.70331         6.35371         0.97461
C         25.60362         7.81450         1.36810
C         26.90088         5.60078         1.48296
C         26.97172         8.53812         1.50931
C         25.90989        10.69846         0.62407
C         25.88072        12.09574         0.50233
C         27.06197        10.03810         1.26633
C         27.11832        12.79515         0.77734
C         25.81532        15.01837         0.93774
C         25.84025        16.40573         0.29773
C         27.14098        14.26659         0.86492
C         27.03102        16.86693        -0.51007
C         25.87795        19.08975        -0.66874
C         27.04795        18.35936        -0.74915
C         28.18717         2.03831         0.79245
C         28.14382         3.44244         1.08390
C         29.45306         1.32087         0.86386
C         29.38938         4.12606         1.49419
C         28.19041         6.35873         1.14738
C         28.24972         7.81830         1.38090
C         29.47791         5.58150         1.18190
C         29.46269         8.49980         1.36349
C         28.36394        10.68082         1.04819
C         28.34423        12.10172         0.80839
C         29.52484         9.93287         1.20703
C         29.61262        12.78619         0.59042
C         28.43329        14.96712         0.48963
C         28.37978        16.31011        -0.11376
C         29.63823        14.15547         0.29005
C         29.52473        16.88021        -0.64678
C         28.26374        18.92924        -1.22620
C         29.45013        18.20264        -1.26132
C         30.62676         1.91665         1.17885
C         30.69441         3.34712         1.53480
C         31.93127         4.11456         1.39244
C         30.75295         6.26711         1.37226
C         30.81113         7.77360         1.46102
C         31.92556         5.50605         1.45620
C         31.74653         8.37403         0.42152
C         30.88231        10.60287         1.05794
C         30.81950        12.02288         0.54019
C         31.78601         9.69823         0.24462
C         32.01952        12.67371         0.13366
C         30.93474        14.91883         0.20370
C         30.81525        16.21215        -0.58624
C         32.08029        14.01443        -0.14416
C         31.91251        16.81056        -1.15360
C         30.64135        18.77413        -1.82134
C         31.82584        18.09091        -1.78512
O          9.70096         9.44746        -2.06342
O          5.73928         8.11722         1.39687
O         28.00807        14.81629         1.91999
O         26.90635         9.49401         2.62874
O         18.84810        15.53448        -1.56250
O         29.93907         3.72371         2.76847
O         21.56730        14.65478         1.88275
O         24.37199        10.32339        -1.16261
O          3.74415         2.68820         2.19924
O         28.80537         5.93087        -0.10762
O          8.67552        16.62809        -1.44816
H          7.80947        16.34395        -1.83055
O         31.48364        10.71160         2.40396
H         30.86673        11.23665         2.95736
O          5.93290        16.65373        -1.47632
H          5.73552        17.60748        -1.60510
O          9.97901        17.06584         1.96637
H          9.78686        16.14003         2.25503
O          2.00407         9.97782        -1.41749
H          1.92878        10.92715        -1.65349
O         12.17744         0.71075        -2.42922
H         13.04402         0.33635        -2.69088
O         23.28015        15.23811        -1.27772
H         23.32838        14.36165        -1.71539
O         14.81493         4.31953        -2.96016
H         13.91165         4.62054        -3.23840
O         16.04439         3.81104         0.48852
H         15.22857         3.39840         0.84345
O         31.36470         8.04147         2.77407
H         31.55233         9.01525         2.83153
O         12.10387         4.62455        -2.72636
H         11.76028         3.82650        -3.18310
O          8.73736        11.95476         1.78186
H          7.95114        11.46045         2.10339
O          8.26973         6.23007        -2.39331
H          8.96735         6.75772        -2.83931
O         12.44066         5.23854         0.87091
H         12.46665         6.06268         1.40053
O         21.71756         5.70311         1.61543
H         20.92993         5.12574         1.71121
O          8.86823        14.74885         1.74084
H          8.85917        13.77410         1.93708
O         31.19637        15.38527         1.59168
H         31.10783        14.60615         2.18125
O         17.42682         4.24433        -2.90039
H         16.53821         4.44357        -3.28479
O          9.44241        14.30020        -1.86838
H         10.21954        13.95619        -2.35693
O          4.58542         4.97899        -1.34793
H          4.58919         5.72182        -1.98730
O         26.79451        16.25584        -1.84680
H         25.96533        16.64925        -2.19708
O         22.53795         8.46571        -2.14525
H         23.35786         8.98344        -2.31698
O          5.43850         4.69320         2.18195
H          5.13748         3.98487         2.79650
O         25.00637         7.80240         2.69568
H         25.33540         8.61096         3.15857
O         16.20541        14.92310        -2.36857
H         17.14285        15.19053        -2.53570
O         26.79596         5.56629         2.93621
H         26.07604         6.18710         3.20361
O         18.98186        14.30621         1.92601
H         19.72716        14.11247         2.53918
O         23.42624        16.50649         2.18966
H         22.72932        15.89102         2.51861
O         15.98659        20.60324         0.11127
H         15.99656        20.35366         1.05778
O         25.53904        15.15569         2.35394
H         26.38900        15.40912         2.78179
H          0.50923         1.35932         0.17462
H          0.39732         3.81088         0.26004
H          2.65836         0.15145         0.35354
H          0.28069         5.75608         0.78066
H          0.21876         8.18744         0.48639
H          0.29101        10.09734         0.99731
H          0.36313        12.48791         1.32736
H          0.27530        14.40525         1.14858
H          0.33137        16.82391         1.54073
H          1.59302        18.95371         1.70505
H          5.16047         0.20301         0.58305
H          3.72282        20.21370         1.51430
H          7.53151         0.25726         0.11866
H          6.12890        20.28465         0.96047
H          9.93375         0.28651        -0.44244
H          8.56987        20.34588         0.36612
H         12.43660         0.48385        -0.36265
H         11.07740        20.36743        -0.01980
H         14.83440         0.34864        -1.26551
H         13.51696        20.36658        -0.21730
H         17.34006         0.37253        -1.30559
H         15.96213        19.73555        -1.74719
H         19.78099         0.38306        -1.01459
H         18.46780        20.38658        -0.39460
H         22.22627         0.38798        -0.71402
H         20.99223        20.35744        -0.37768
H         24.64242         0.37183        -0.32207
H         23.45130        20.25277        -0.57984
H         27.03005         0.31221         0.20541
H         25.88010        20.15163        -0.96047
H         29.43961         0.25189         0.60248
H         28.26239        19.97801        -1.56146
H         31.56606         1.34414         1.14643
H         32.88242         3.57476         1.27670
H         32.88808         6.03681         1.50474
H         32.40607         7.70907        -0.15657
H         32.46884        10.14200        -0.49467
H         32.93294        12.07063         0.02211
H         33.04449        14.45376        -0.43570
H         32.89441        16.31866        -1.12196
H         30.58137        19.76834        -2.28747
H         32.73369        18.52861        -2.22317
