         280
 CSIRO Nanostructure Databank - Neutral Graphene Oxide Data Set
C         30.57487        32.28167         1.93741
C         30.57800        33.45406         1.54807
C         30.39073        36.26167        -0.12776
C         30.45437        37.33105        -0.75307
C         30.41830        40.33337        -1.49531
C         30.59731        41.59223        -1.65396
C         32.97529        29.47984         1.94469
C         31.88651        30.01075         2.35255
C         32.94047        32.02781         1.42062
C         31.53093        31.23161         1.45576
C         32.86408        33.44154         0.88824
C         31.65988        34.39887         1.13188
C         32.79753        35.97646        -0.47627
C         31.46579        35.19955        -0.14868
C         32.76952        37.32477        -1.03805
C         31.61331        38.07085        -1.17970
C         32.84778        40.20510        -1.10676
C         31.66322        39.47407        -1.73936
C         32.73937        41.60897        -0.53183
C         31.65821        42.42623        -1.34014
C         33.07275        44.45179        -1.08407
C         32.06891        43.75158        -1.41233
C         35.37410        27.53597         1.02517
C         35.14563        28.93758         0.67777
C         34.09058        29.78577         1.19029
C         35.35623        31.94528         0.62591
C         33.99659        31.22217         0.62326
C         35.30576        33.31761         0.57060
C         34.00762        34.00386         0.38961
C         35.27427        35.84343        -0.88405
C         33.98568        35.30534        -0.26691
C         35.24336        37.37086        -0.65027
C         34.07297        38.03256        -1.38019
C         35.22270        40.10278        -0.49079
C         34.01692        39.48701        -0.92490
C         35.15989        41.42859         0.23264
C         34.13023        42.32371        -0.53410
C         35.37867        44.50767        -0.01127
C         34.02575        43.80647        -0.02486
C         35.54556        45.68906         0.84870
C         37.77157        27.46297         0.52816
C         36.44569        26.97898         0.69960
C         37.79196        28.84739         0.37425
C         36.53125        29.63988         0.36923
C         37.87141        31.73348        -0.08422
C         36.61876        31.13592         0.51211
C         37.89783        33.04314        -0.87778
C         36.45148        34.25189         0.64671
C         37.83046        36.12659        -0.24719
C         36.52737        35.33842        -0.17928
C         37.74345        37.28353        -1.27264
C         36.51882        38.10736        -0.96613
C         37.64652        40.38494        -1.02610
C         36.48312        39.46678        -0.75022
C         37.69210        41.61654        -0.13653
C         36.51561        42.12610         0.35328
C         37.80393        44.09476         1.31655
C         36.47897        43.42023         1.07525
C         37.79475        45.56477         1.76594
C         36.47452        46.15673         1.52904
C         40.22342        24.78681         1.20688
C         39.13780        25.28949         0.88839
C         40.19811        27.48461         0.99811
C         39.04137        26.68718         0.31597
C         40.27519        28.87057         0.35682
C         39.07735        29.51428         0.14318
C         40.36752        31.61939        -0.69783
C         39.05708        30.87949        -0.43621
C         40.39375        33.14804        -1.01898
C         39.10435        33.91316        -0.65419
C         40.31984        36.05480        -0.70351
C         39.08163        35.27907        -0.55660
C         40.29723        37.38318        -1.05918
C         39.01880        38.11512        -1.30661
C         40.21170        40.37129        -0.87876
C         38.96238        39.63165        -1.18842
C         40.19959        41.66331        -0.41050
C         38.96863        42.32055         0.04590
C         40.31257        44.27947         1.04041
C         39.02224        43.53794         0.70950
C         40.21162        45.82101         1.04890
C         39.02114        46.38357         1.63549
C         40.17834        48.07636         3.07984
C         39.28044        47.56839         2.29134
C         42.79215        24.82199         1.85757
C         41.54229        25.35711         1.35554
C         42.72706        27.58934         1.33294
C         41.50237        26.72855         1.07491
C         42.71446        28.95094         0.69291
C         41.55067        29.57475         0.22945
C         42.82514        31.68848        -0.13371
C         41.60044        30.93755        -0.24106
C         42.80262        33.14188        -0.37391
C         41.64225        33.84564        -0.52999
C         42.79463        35.97346        -1.28481
C         41.65314        35.37136        -0.42048
C         42.85469        37.47380        -1.09872
C         41.54679        38.15934        -1.28417
C         42.74109        40.36964        -0.76706
C         41.48641        39.67129        -1.19496
C         42.74068        41.86394        -0.84127
C         41.42833        42.50965        -0.48800
C         42.78385        44.55757         0.34102
C         41.47946        43.84258         0.17508
C         42.66742        45.91633         0.52441
C         41.40129        46.53407         0.88577
C         42.61413        47.46660         3.21526
C         41.48139        48.03636         2.57157
C         43.80561        25.51766         1.41378
C         44.99160        27.29327        -0.00203
C         44.03457        26.80830         1.04690
C         45.14663        28.86893        -0.00943
C         44.03034        29.65396         0.75580
C         45.28943        31.84913         0.57807
C         43.99314        31.10180         0.34136
C         45.34344        33.27527         0.10612
C         44.10505        33.86201        -0.44518
C         45.26742        36.10952        -0.44885
C         44.11331        35.27784        -0.91239
C         45.31754        37.52398        -0.84321
C         44.03042        38.17142        -0.98962
C         45.31481        40.37513        -0.75213
C         44.03203        39.62934        -0.73066
C         45.29090        41.72655        -0.50908
C         44.04466        42.54557        -0.59149
C         45.14875        43.85130         1.18949
C         44.13189        43.96088        -0.02488
C         45.10686        45.08161         2.12337
C         44.02439        45.33457         2.93837
C         43.53988        46.64770         3.28185
C         47.47426        27.45739        -0.09410
C         46.42913        26.83388         0.12298
C         47.77663        28.86342        -0.10362
C         46.45796        29.59430        -0.13888
C         47.79979        31.81466         0.10768
C         46.49660        31.09482         0.00525
C         47.82796        33.29983         0.31070
C         46.53509        33.95912         0.12065
C         47.79093        36.17050        -0.17066
C         46.52190        35.44115         0.03042
C         47.77097        37.45125        -0.65170
C         46.52812        38.19907        -0.83209
C         47.78620        40.34852        -0.97253
C         46.58002        39.65850        -0.87376
C         47.78012        41.90723        -0.93413
C         46.53278        42.43960        -0.25866
C         47.78636        44.41561         0.60878
C         46.50096        43.56254         0.51284
C         47.48517        45.51407         1.60441
C         46.33330        45.78617         1.97723
C         50.30041        29.02667         0.23771
C         48.95998        29.51333         0.08075
C         50.30884        31.72258         0.60714
C         49.01801        30.99728         0.37632
C         50.29685        33.27413         0.78147
C         49.01901        33.98247         0.31612
C         50.31423        36.13523        -0.31493
C         49.06664        35.51533         0.32939
C         50.30357        37.38650        -0.85213
C         49.00195        38.06861        -1.26570
C         50.16267        40.17656        -1.69935
C         49.01469        39.60112        -1.22133
C         50.22576        42.32782        -0.90334
C         49.02898        42.49737        -0.25782
C         50.28827        43.91683         1.20480
C         48.89273        43.39852         0.99356
C         51.39644        29.52837         0.55050
C         52.73167        31.83476         0.85140
C         51.66304        30.97577         0.21115
C         52.70031        33.06269         0.68449
C         51.58560        33.92183         0.25364
C         52.74130        36.24358        -0.28776
C         51.59545        35.32769        -0.21117
C         52.73493        37.38914        -0.74477
C         51.57668        38.08609        -1.31163
C         52.51063        40.56047        -1.43865
C         51.50417        39.52534        -1.72434
C         52.45185        41.58900        -0.72391
C         51.55523        42.61384        -0.35293
C         51.37302        43.47203         0.77015
O         51.65570        38.46258        -2.71084
O         43.24661        39.90546         0.52324
O         50.21685        41.53766        -2.07131
O         37.25081        40.92019        -2.39081
O         37.20519        33.12476        -1.87733
O         44.43376        34.24628        -1.88220
O         45.56461        29.30594        -1.30705
O         41.55087        39.01834        -2.48789
O         39.03136        38.96479        -2.49793
O         37.92775        44.52013         2.76497
O         49.58238        31.16449         1.73577
O         39.60072        30.94139        -1.77646
O         51.59147        34.21724        -1.15972
O         35.57837        29.27654        -0.67698
O         41.52814        47.93195         1.10098
O         37.70525        31.61987         1.38063
O         47.14894        31.60758        -1.19626
O         43.46025        42.46888        -1.94894
O         45.55876        36.00344         0.99497
O         41.13102        43.73390        -1.24973
O         34.99986        37.55766         0.76927
H         35.84677        37.40779         1.24439
O         49.16045        35.91945         1.72786
H         49.59745        35.18487         2.23028
O         48.42646        42.67919         2.12557
H         49.14595        42.10745         2.46369
O         42.65333        27.81254         2.80044
H         42.82939        26.93405         3.21278
O         31.22700        34.28884        -1.20196
H         31.19281        34.77539        -2.05063
O         45.52657        31.95304         2.01207
H         45.22067        31.11086         2.43607
O         33.42264        43.84362         1.23465
H         33.57356        44.72685         1.63476
O         42.00890        35.69129         0.94968
H         41.28962        35.39305         1.54388
O         32.25744        41.50827         0.80322
H         31.42776        40.98519         0.79246
O         47.71263        42.36128        -2.29778
H         48.54861        42.09858        -2.74818
O         48.10240        44.94815        -0.65642
H         47.31260        45.41257        -1.00631
O         50.34604        33.52193         2.21243
H         49.87570        32.76915         2.64895
O         31.86830        39.40249        -3.16312
H         31.02988        39.11038        -3.57917
O         34.60075        42.41971        -1.89562
H         35.26161        41.71165        -2.08976
O         38.34159        41.72631        -2.88092
H         38.90597        41.06862        -3.36088
O         44.77658        44.78919        -1.00971
H         44.29942        44.65229        -1.85710
O         43.72040        46.75658         0.40534
H         43.39251        47.66890         0.57805
O         43.19810        44.30508         3.26747
H         42.28758        44.60673         3.47411
O         40.62812        43.93088         2.42147
H         39.79233        44.04260         2.93922
O         39.78308        27.70842         2.37385
H         40.58977        27.94863         2.88612
O         34.67981        41.11418         1.54393
H         34.36230        41.94269         1.97171
O         35.91904        44.67817        -1.25972
H         35.42569        44.11580        -1.90723
O         31.99511        35.29213         2.17908
H         32.10649        34.79033         3.01164
O         33.55296        31.12111        -0.73089
H         34.18863        30.55209        -1.22368
O         35.73762        43.36754         2.26727
H         36.23984        43.88547         2.94419
O         48.87315        37.74382        -2.68667
H         49.73378        37.94995        -3.12405
O         42.50486        35.73726        -2.66375
H         42.94895        34.89465        -2.92038
O         40.49942        33.25377        -2.45835
H         39.91698        32.56124        -2.84831
O         33.40199        32.10608         2.78575
H         32.63017        32.27391         3.36706
O         44.74665        42.68851         1.91874
H         45.36282        42.55322         2.66804
O         44.46482        26.94361        -1.26465
H         44.93911        27.47660        -1.94332
O         51.79533        31.08421        -1.17822
H         52.65327        30.71025        -1.46439
O         31.15261        30.78246         0.20558
H         30.21074        30.52056         0.21004
O         37.41174        34.11191         1.61523
H         37.37748        33.20212         2.00630
O         37.61965        36.68802        -2.58379
H         37.84199        37.38499        -3.24175
O         35.21921        35.48978        -2.26628
H         36.06600        35.77595        -2.68972
O         44.53324        29.55251         2.14064
H         43.86244        29.06761         2.68938
O         38.06034        36.76469         1.03764
H         38.02481        36.05261         1.71703
O         34.30989        37.99972        -2.79441
H         33.55066        38.44985        -3.23755
O         39.29714        26.62763        -1.07977
H         38.56693        26.14901        -1.52314
