         429
 CSIRO Nanostructure Databank - Neutral Graphene Oxide Data Set
C          1.25477         2.10962        -0.46303
C          1.19427         3.49223        -0.27020
C          2.47436         1.43780        -0.44251
C          2.35824         4.24336        -0.00464
C          1.14996         6.43453        -0.22843
C          1.15472         7.81213        -0.39685
C          2.34230         5.71498         0.00851
C          2.35396         8.55689        -0.38971
C          1.20416        10.74708        -0.64840
C          1.22779        12.15838        -0.83191
C          2.35520         9.99181        -0.62939
C          2.41247        12.86947        -0.93824
C          1.29509        15.11425        -0.41412
C          1.39435        16.44713        -0.20734
C          2.37772        14.37134        -1.16051
C          2.60996        17.18376        -0.50709
C          2.66347        18.60537        -0.36664
C          3.66151         2.14713        -0.16442
C          3.58483         3.53855         0.09879
C          4.94751         1.48557        -0.17613
C          4.81110         4.23465         0.49637
C          3.54737         6.45949         0.10364
C          3.57433         7.85905        -0.13780
C          4.79412         5.78459         0.49760
C          4.83644         8.57201        -0.06861
C          3.68091        10.64795        -0.95236
C          3.65848        12.16869        -0.92740
C          4.79724        10.09149        -0.05585
C          4.87692        12.85815        -1.01082
C          3.72304        15.04211        -0.99017
C          3.77329        16.47044        -0.84582
C          4.88924        14.30076        -1.10595
C          5.03655        17.17551        -0.96728
C          3.83338        19.30315        -0.55457
C          5.06360        18.62757        -0.84584
C          6.12496         2.16546         0.02680
C          6.10481         3.56925         0.33835
C          7.46908         1.51028        -0.20115
C          7.28740         4.30896         0.43897
C          6.07567         6.46039         0.28523
C          6.02815         7.88801         0.07757
C          7.27670         5.73368         0.34216
C          7.33392         8.63068         0.21361
C          6.11969        10.74539        -0.40664
C          6.13370        12.15954        -0.77756
C          7.29457        10.04727        -0.29213
C          7.33050        12.85481        -0.70457
C          6.16118        15.01794        -1.31935
C          6.20052        16.47775        -1.20867
C          7.45929        14.26010        -1.11091
C          7.50372        17.16944        -1.53792
C          6.27459        19.30821        -0.94467
C          7.51555        18.63236        -1.15313
C          8.56258         2.08583         0.71293
C          8.58515         3.61005         0.65264
C          9.89609         1.46649         0.38122
C          9.88448         4.33361         0.41828
C          8.52314         6.38374        -0.15709
C          8.48022         7.85799        -0.40874
C          9.84627         5.72952        -0.07727
C          9.76251         8.59088        -0.67824
C          8.57729        10.71587        -0.35350
C          8.54075        12.17599        -0.21698
C          9.78411        10.04662        -0.41084
C          9.84542        12.90282        -0.15655
C          8.70960        15.02570        -0.84220
C          8.72536        16.42813        -1.01775
C          9.89418        14.33913        -0.50547
C          9.93997        17.13025        -0.86617
C          8.72178        19.29557        -1.06090
C          9.98794        18.59932        -0.97703
C         11.11150         2.11663         0.29995
C         11.15597         3.57917         0.33143
C         12.27060         1.27513        -0.04016
C         12.31758         4.36131         0.19022
C         11.02467         6.39973        -0.38764
C         11.04753         7.82937        -0.81349
C         12.28665         5.73221        -0.22520
C         12.35998         8.64076        -0.83830
C         11.04880        10.73660        -0.23320
C         11.08393        12.10426        -0.16315
C         12.29089         9.90081         0.05606
C         12.32088        12.84575         0.26131
C         11.14084        15.01015        -0.47695
C         11.13485        16.41401        -0.65554
C         12.37912        14.27785        -0.24371
C         12.41313        17.13802        -0.75256
C         11.16709        19.29138        -0.85598
C         12.44822        18.62430        -0.41121
C         13.56090         1.58156         0.33307
C         13.61823         3.78464         0.42835
C         14.83852         1.07416        -0.05031
C         14.76894         4.22356        -0.16115
C         13.52503         6.41690        -0.46126
C         13.58979         7.81308        -0.53450
C         14.76639         5.62188        -0.63740
C         14.82791         8.52143        -0.37845
C         13.58721        10.68880        -0.05874
C         13.58784        12.06723         0.01759
C         14.83238         9.93886        -0.14309
C         14.81928        12.81700         0.08984
C         13.60726        14.91078        -0.29649
C         13.67415        16.34961        -0.64754
C         14.83649        14.19862         0.00106
C         14.91439        17.14179        -0.28073
C         13.72518        19.26363        -0.88504
C         14.99031        18.48171        -1.05569
C         16.00534         1.88397        -0.02523
C         15.97967         3.36805        -0.26543
C         17.27070         1.26481        -0.03292
C         17.31239         4.11942        -0.27503
C         16.10610         6.36697        -0.60942
C         16.06531         7.81746        -0.32729
C         17.31372         5.60046        -0.20625
C         17.26846         8.49505        -0.06845
C         16.05843        10.59980         0.10759
C         16.04354        12.04785         0.38872
C         17.29465         9.89992         0.11867
C         17.36279        12.77927         0.43756
C         16.10002        14.98873         0.31390
C         16.16826        16.29320        -0.50493
C         17.38452        14.21454         0.15375
C         17.44243        17.09441        -0.28321
C         16.17827        19.21460        -0.49008
C         17.35347        18.54422        -0.13755
C         18.50307         1.96896         0.09297
C         18.53484         3.39220         0.11122
C         19.73518         1.28500         0.29069
C         19.70827         4.07674         0.46605
C         18.45125         6.26126         0.14215
C         18.53050         7.72292        -0.08813
C         19.65026         5.54243         0.63525
C         19.82443         8.44629         0.11795
C         18.57053        10.60493         0.24066
C         18.60371        12.01601         0.28077
C         19.80422         9.90623         0.26158
C         19.83244        12.72776         0.25292
C         18.58328        14.87820         0.02799
C         18.61837        16.33011        -0.18741
C         19.83719        14.15660         0.16226
C         19.90179        16.91917        -0.27274
C         18.42841        19.31133         0.47411
C         19.77667        18.98799         0.28514
C         20.92405         1.95784         0.54272
C         20.93517         3.38369         0.67928
C         22.17691         1.11238         0.60145
C         22.16360         4.12269         0.88885
C         20.96055         6.29079         0.81474
C         21.03537         7.72821         0.52986
C         22.21213         5.51514         0.85095
C         22.24897         8.40550         0.60600
C         21.04831        10.57885         0.38190
C         21.06103        12.00991         0.35660
C         22.27755         9.85089         0.49467
C         22.29108        12.71729         0.44513
C         21.07130        14.84192         0.25949
C         21.09300        16.30524         0.19991
C         22.27548        14.12817         0.40571
C         22.17851        17.05771         0.67054
C         20.93510        19.28125         1.01998
C         22.14751        18.48454         1.00179
C         23.44735         1.86589         0.95593
C         23.42700         3.38755         1.11265
C         24.72200         1.24917         0.61867
C         24.70599         4.11288         0.98554
C         23.45691         6.25435         0.86855
C         23.46678         7.65368         0.78236
C         24.70678         5.52467         0.93416
C         24.76601         8.38346         0.54106
C         23.51141        10.55852         0.65477
C         23.52280        11.98811         0.63043
C         24.72948         9.84971         0.87535
C         24.73535        12.68690         0.86783
C         23.55600        14.91525         0.38314
C         23.37322        16.26350         1.06385
C         24.74230        14.14023         0.90983
C         24.58357        16.93407         1.63136
C         23.29764        19.09526         1.50611
C         24.55727        18.41315         1.97170
C         25.92865         1.94831         0.74878
C         25.92267         3.38594         0.95245
C         27.17116         1.28138         0.57686
C         27.16397         4.08723         0.99097
C         25.94981         6.23804         1.03108
C         25.97619         7.65879         1.05721
C         27.17006         5.51141         1.11242
C         27.16807         8.35386         1.34532
C         25.90668        10.53308         1.22944
C         25.88987        11.95587         1.24442
C         27.16775         9.81495         1.46234
C         27.07518        12.70413         1.68617
C         25.88624        14.83939         1.23898
C         25.88891        16.25860         1.44362
C         27.20202        14.11335         1.16686
C         27.07703        16.96984         1.50364
C         25.82841        19.10995         1.56531
C         27.04027        18.43179         1.49807
C         28.40243         1.96466         0.66146
C         28.39737         3.38723         0.89157
C         29.63585         1.28932         0.48844
C         29.63047         4.09827         0.96979
C         28.39992         6.22031         1.24819
C         28.37877         7.62143         1.47368
C         29.64139         5.50886         1.18895
C         29.64988         8.29726         1.75954
C         28.34396        10.49721         1.71581
C         28.38079        11.95091         1.93795
C         29.65582         9.82732         1.85143
C         29.64026        12.68928         1.84808
C         28.37491        14.88813         1.68012
C         28.34957        16.26608         1.61727
C         29.57044        14.15721         2.24706
C         29.58968        17.02799         1.62439
C         28.27557        19.12213         1.36238
C         29.52166        18.45263         1.38739
C         30.86702         1.98093         0.53939
C         30.85734         3.39683         0.80107
C         32.09639         1.33390         0.25378
C         32.08974         4.09824         0.88795
C         30.88445         6.22039         1.24188
C         30.90718         7.62848         1.42280
C         32.11293         5.51109         1.11672
C         32.11203         8.37267         1.29943
C         30.87681        10.55822         1.49430
C         30.85321        12.01030         1.54437
C         32.09925         9.84666         1.24730
C         32.07947        12.71460         1.41174
C         30.88075        14.92060         2.02120
C         30.82647        16.36810         1.66360
C         32.14465        14.15244         1.73008
C         32.01895        17.06060         1.27574
C         30.71899        19.15987         1.16577
C         31.95219        18.48233         1.03776
C         33.33621         2.01986         0.27237
C         33.31522         3.39157         0.76221
C         34.44275         1.44058        -0.41115
C         34.49094         4.11262         1.06539
C         33.34202         6.23648         1.12888
C         33.32103         7.66267         1.16225
C         34.57450         5.51274         1.07048
C         34.56869         8.35532         0.76764
C         33.25960        10.54319         0.86544
C         33.20600        12.04141         0.66854
C         34.49735         9.83254         0.47760
C         34.55059        12.73025         0.75614
C         33.37012        14.94187         1.37089
C         33.25070        16.38126         1.05342
C         34.59738        14.20131         0.92721
C         34.37378        17.06445         0.53648
C         33.11510        19.17874         0.64582
C         34.31342        18.49624         0.35777
C         35.64005         2.13059        -0.79091
C         36.09496         3.24555        -0.02482
C         36.35717         1.86435        -1.97996
C         36.90763         4.25248        -0.52864
C         35.89252         6.19569         0.95790
C         35.86662         7.70644         1.24664
C         37.04211         5.56074         0.15476
C         37.17742         8.47970         0.89954
C         35.78593        10.60724         0.15141
C         35.70847        12.09392         0.41174
C         37.12122        10.00333         0.64602
C         36.87680        12.84821        -0.01500
C         35.65187        14.95986         0.23570
C         35.56401        16.36055         0.12046
C         36.79856        14.25208        -0.20854
C         36.66236        17.07906        -0.46642
C         35.44313        19.19546        -0.12344
C         36.61266        18.51933        -0.53686
C         37.39071         2.73137        -2.40579
C         37.64232         3.96090        -1.71353
C         38.19368         2.42861        -3.55570
C         38.72338         4.81089        -2.10147
C         38.10172         6.46006        -0.35198
C         38.30344         7.69739         0.29014
C         39.01454         6.00574        -1.35095
C         39.58326         8.26830         0.11603
C         38.26969        10.81857         0.11691
C         38.08484        12.17152        -0.32094
C         39.59138        10.39451         0.17257
C         39.18405        12.89426        -0.90442
C         37.87236        14.95744        -0.84355
C         37.79112        16.39242        -0.96502
C         39.01818        14.25998        -1.26241
C         38.90396        17.11996        -1.50597
C         37.72634        19.22766        -1.03141
C         38.87271        18.55301        -1.50109
C         39.22760         3.24791        -3.93181
C         39.53913         4.43759        -3.19770
C         40.66482         5.24579        -3.53270
C         40.18198         6.76387        -1.67836
C         40.50614         7.90605        -0.87546
C         40.98350         6.35824        -2.78893
C         41.69018         8.73200        -1.09337
C         40.64482        10.95144        -0.60804
C         40.44691        12.24621        -1.12791
C         41.77168        10.08851        -0.93567
C         41.50967        12.99072        -1.77714
C         39.99583        14.93415        -2.20091
C         40.03687        16.44445        -2.04267
C         41.34342        14.26070        -2.20285
C         41.09964        17.19060        -2.54125
C         39.99229        19.27748        -2.00392
C         41.08364        18.60276        -2.50726
O         13.66819         2.65809         1.24534
O          9.04728        12.68090         1.09208
O          9.28359         4.19051         1.80751
O         23.39649         2.48764         2.28053
O          6.93963        14.49797        -2.47717
O         34.44691        14.65108         2.33300
O         13.14083        16.71970        -1.96969
O         16.62409        12.43862         1.70136
O         37.00458         5.54583         1.62859
O         16.70686         3.62902        -1.51405
O         27.49093        12.42631         3.02817
O         23.64964        16.19270         2.50326
O         39.93529         9.30530         0.98523
O          8.16162         6.96558        -1.49467
O         20.06093         5.99983         1.97115
O          4.68805         5.01284         1.73195
O         35.64380         3.35192         1.29788
O         37.38040         9.46655         1.95874
O         10.26748         8.17540        -2.00264
O         20.01626        18.16024        -0.85783
O         34.37951         8.79914        -0.60681
O         19.38013         8.01801        -1.26591
O         15.48577         5.94636        -1.85949
O         31.78133        14.56041         3.12039
O         29.73184         8.99122         3.05753
O         16.20224        15.85618        -1.87988
H         16.06477        16.66754        -2.43793
O         12.42188        18.72622         1.05931
H         13.30456        18.39973         1.37881
O         23.85856        15.21848        -1.01860
H         23.88498        14.37042        -1.51021
O         24.48840        18.51683         3.43610
H         23.98150        17.72944         3.74316
O         39.44169        14.71750        -3.55149
H         39.35537        13.74871        -3.67816
O          8.21543         1.70612         2.06577
H          8.69629         2.32259         2.66264
O         35.71694         7.77592         2.68493
H         36.48125         7.30700         3.08433
O         12.16945         9.44465         1.42644
H         12.18406        10.23438         2.00926
O         24.93043         8.36292        -0.93897
H         24.93041         7.42168        -1.21691
O         12.18793        12.93440         1.72925
H         11.27231        13.23450         1.92366
O         35.97175        10.51083        -1.29553
H         35.11462        10.72786        -1.72050
O         27.46974        13.93588        -0.27958
H         27.36702        14.81121        -0.71101
O          7.87910         1.76224        -1.55328
H          7.16249         1.47682        -2.15600
O          4.03367        10.25778        -2.30974
H          3.38725        10.66862        -2.92133
O         29.34213        14.16730         3.68750
H         30.22855        14.05904         4.10714
O          7.61559        17.13554        -2.99889
H          7.49594        16.18990        -3.26072
O          4.46692        10.49645         1.30371
H          5.00053         9.96106         1.92703
O         15.22666        18.24286        -2.49261
H         14.38486        17.85759        -2.84183
O         12.57587         9.12984        -2.18162
H         11.76483         8.91685        -2.70430
O         32.86279        12.21595        -0.78789
H         32.03689        11.70861        -0.94711
O         14.83164        17.52357         1.11559
H         15.12157        16.75496         1.67182
O         16.04099        15.28142         1.74865
H         16.08817        14.40555         2.20540
O          7.66410         8.70562         1.63627
H          7.10801         9.39765         2.05118
O         22.35607         0.45314        -0.66660
H         22.11001         1.07308        -1.38305
O          2.05142        14.52690        -2.59113
H          2.07234        15.48727        -2.79098
H          0.32884         1.55299        -0.66414
H          0.21638         3.98680        -0.33915
H          2.51829         0.35690        -0.63704
H          0.18921         5.90678        -0.29190
H          0.19796         8.31803        -0.58476
H          0.22633        10.27610        -0.47316
H          0.26560        12.68808        -0.85086
H          0.36434        14.59044        -0.15230
H          0.55767        17.00093         0.24552
H          1.73953        19.14257        -0.10695
H          4.97345         0.41012        -0.41084
H          3.84430        20.39814        -0.45327
H          7.38645         0.39991        -0.03166
H          6.29382        20.39553        -0.77123
H          9.89401         0.36962         0.27926
H          8.72578        20.38641        -0.90723
H         12.07188         0.36746        -0.62897
H         11.15129        20.39146        -0.90484
H         14.94875         0.01451        -0.32889
H         13.73230        20.34016        -1.11757
H         17.30692         0.16566         0.01614
H         16.11843        20.30249        -0.33798
H         19.74962         0.18708         0.22406
H         18.15205        20.15765         1.11962
H         22.03532         0.29917         1.36198
H         20.91632        20.13237         1.71678
H         24.72360         0.21731         0.23893
H         23.21899        20.15765         1.78749
H         27.17009         0.19682         0.39274
H         25.82621        20.20958         1.52997
H         29.63176         0.20698         0.29179
H         28.26487        20.21669         1.25339
H         32.07403         0.28359        -0.07421
H         30.68268        20.24584         0.99574
H         34.24199         0.48424        -0.92186
H         33.06511        20.26735         0.49681
H         36.09418         0.99219        -2.59654
H         35.39632        20.29111        -0.21217
H         37.98546         1.50641        -4.11736
H         37.69524        20.32695        -1.06398
H         39.85093         2.98687        -4.79947
H         41.29315         4.95587        -4.38738
H         41.86669         6.95466        -3.05641
H         42.57684         8.22515        -1.50677
H         42.71346        10.57211        -1.23863
H         42.49794        12.51624        -1.86477
H         42.19123        14.77785        -2.67436
H         41.97152        16.69194        -2.98562
H         39.96787        20.37656        -1.99349
H         41.94447        19.15946        -2.90304
