         424
 CSIRO Nanostructure Databank - Neutral Graphene Oxide Data Set
C          1.18871         3.51943         0.33036
C         -0.01823         4.20860         0.22747
C          1.12778         6.35545        -0.11695
C         -0.04923         5.59931         0.06091
C          1.12800         7.75258        -0.27887
C         -0.04328         8.55007        -0.15478
C          1.20791        10.63942        -0.51316
C         -0.02235         9.91782        -0.29601
C          1.20921        12.08517        -0.77813
C         -0.02451        12.80357        -1.03381
C          1.24134        14.82966        -1.77397
C         -0.02808        14.09903        -1.41725
C          1.19851        16.32611        -1.52406
C          0.00918        17.04070        -1.64724
C          1.17405        19.15755        -1.36227
C         -0.00211        18.44104        -1.57091
C          1.17891        20.67194        -1.43872
C         -0.07530        21.33344        -0.91399
C          1.10331        23.51606        -1.08007
C         -0.08791        22.65594        -0.71078
C          1.08710        24.88935        -0.44872
C         -0.04019        25.53757        -0.06214
C          1.11492        27.68597         0.24805
C          0.02451        26.88381         0.46245
C          1.18701        29.04613         0.74494
C          0.08768        29.65857         1.38744
C          1.27531        31.78348         1.58423
C          0.11770        30.99054         1.76938
C          1.28526        33.20524         1.85754
C          0.10443        33.93377         2.12438
C          1.33161        36.04168         2.10361
C          0.12739        35.31885         2.23624
C          1.32053        37.49523         2.05146
C          3.62555         3.55130         0.50212
C          2.42409         4.20403         0.25987
C          3.60334         6.45628         0.30859
C          2.45466         5.62892        -0.25176
C          3.61272         7.80190         0.09018
C          2.42899         8.42882        -0.65016
C          3.70651        10.62159        -0.79281
C          2.39180         9.92839        -0.54599
C          3.63404        12.08304        -0.29342
C          2.41004        12.78549        -0.82217
C          3.66664        14.88350        -1.13545
C          2.46937        14.17263        -1.17889
C          3.67475        16.32647        -1.28390
C          2.41270        17.03615        -1.33075
C          3.65595        19.17762        -1.14700
C          2.40250        18.45453        -1.25138
C          3.66245        20.57597        -1.00232
C          2.36883        21.27867        -0.68027
C          3.60997        23.46322        -0.80542
C          2.41586        22.78452        -0.82968
C          3.62868        24.93319        -0.78241
C          2.39408        25.63570        -0.25119
C          3.51319        27.90862        -0.74083
C          2.19418        27.10950        -0.67361
C          3.47093        29.30197        -0.20336
C          2.37979        29.81213         0.56742
C          3.67439        31.90796         1.00630
C          2.43931        31.17004         1.03714
C          3.72930        33.22003         1.52676
C          2.52853        33.91277         1.81119
C          3.78661        36.06222         1.76250
C          2.55035        35.34311         1.93961
C          3.81389        37.58313         1.82731
C          2.44532        38.20986         1.85211
C          6.04530         3.62850         0.82820
C          4.83549         4.27800         0.71863
C          5.98008         6.50269         1.22576
C          4.66293         5.73077         1.12631
C          6.00556         7.98562         0.90406
C          4.79210         8.63768         0.33373
C          6.17976        10.64613        -0.29966
C          4.86210         9.93210        -0.09812
C          6.12712        12.15938        -0.22743
C          4.92193        12.83169        -0.50542
C          6.14881        14.90413        -0.91070
C          4.92591        14.21061        -0.82593
C          6.16663        16.28432        -1.51925
C          4.87792        17.03280        -1.29210
C          6.12519        19.17392        -1.17368
C          4.89456        18.46325        -1.22494
C          6.12205        20.59052        -1.09835
C          4.87839        21.29629        -1.00499
C          6.08758        23.41510        -0.94736
C          4.87321        22.72575        -0.89087
C          6.07452        24.87295        -0.67555
C          4.80599        25.63137        -0.85174
C          6.18756        27.77526        -0.73009
C          4.84587        27.12975        -0.91806
C          6.33721        29.17400        -0.85688
C          4.52027        30.19814        -0.45660
C          6.12447        31.94443         0.40781
C          4.80326        31.34936         0.31329
C          6.21879        33.14941         1.17745
C          5.05082        33.87511         1.84328
C          6.18020        36.22619         1.37957
C          5.00153        35.40744         1.62903
C          6.09318        37.54820         0.83043
C          4.71354        38.16043         0.71201
C          8.45619         3.63757         1.33913
C          7.28308         4.31415         1.10737
C          8.45380         6.47659         1.04725
C          7.26600         5.78091         1.14112
C          8.48333         7.91051         0.95377
C          7.32031         8.63241         0.72403
C          8.52994        10.75723         0.47921
C          7.36280        10.04284         0.41296
C          8.54317        12.25756         0.44980
C          7.32106        12.88763        -0.15408
C          8.61886        14.94332        -0.57859
C          7.36112        14.26370        -0.52457
C          8.70618        16.30251        -1.23664
C          7.40988        17.07279        -1.19058
C          8.63181        19.20898        -1.07673
C          7.39108        18.45038        -1.15135
C          8.61752        20.60246        -1.12150
C          7.35444        21.32446        -1.11936
C          8.58244        23.50421        -1.36216
C          7.32263        22.72575        -1.07646
C          8.63986        24.89214        -0.77299
C          7.37170        25.58610        -0.49032
C          8.62859        27.73156        -0.42111
C          7.37704        27.05737        -0.52361
C          8.65217        29.14683        -0.25052
C          7.43894        29.88890        -0.35121
C          8.62613        31.91268         0.29816
C          7.36095        31.27774         0.05922
C          8.67955        33.22545         0.84493
C          7.48471        33.63307         1.47253
C          8.64348        36.26119         1.02512
C          7.47764        35.74600         1.61342
C          8.55116        37.61287         0.54600
C          7.25152        38.22686         0.48624
C         11.00174         3.64932         1.57572
C          9.70704         4.41644         1.67869
C         11.00962         6.45015         0.90586
C          9.71987         5.67857         0.81356
C         11.03356         7.86825         0.80939
C          9.78038         8.61300         1.04387
C         11.06198        10.74743         0.40585
C          9.80341        10.10755         0.83316
C         11.05327        12.13399         0.05566
C          9.83851        12.85635        -0.02499
C         11.09152        14.92581        -0.40558
C          9.84342        14.24290        -0.33598
C         11.08757        16.40636        -0.19704
C          9.88750        17.10842        -0.77331
C         11.10888        19.23551        -0.75710
C          9.88103        18.49162        -0.86209
C         11.11360        20.61576        -0.96055
C          9.86172        21.34232        -1.09434
C         11.07068        23.48673        -1.10735
C          9.85327        22.73840        -1.12236
C         11.09591        24.87936        -0.94402
C          9.83951        25.58096        -0.72656
C         11.09360        27.69618        -0.36580
C          9.86164        27.00748        -0.46643
C         11.11088        29.10797        -0.14289
C          9.88929        29.82431        -0.08420
C         11.09441        31.94243         0.26975
C          9.87285        31.23487         0.12409
C         11.08456        33.36129         0.48858
C          9.87224        34.03299         0.81421
C         11.03605        36.19657         0.54714
C          9.85493        35.48342         0.87389
C         10.99563        37.62721         0.32825
C          9.74165        38.28912         0.23554
C         13.46204         3.62020         1.49125
C         12.19458         4.29378         1.34339
C         13.44547         6.37756         0.80619
C         12.21856         5.71758         0.99344
C         13.44350         7.75858         0.21044
C         12.22132         8.56436         0.55922
C         13.49127        10.64544         0.02683
C         12.25714         9.99238         0.34827
C         13.51802        12.05897        -0.19849
C         12.29607        12.79733        -0.20373
C         13.56783        14.90637        -0.50085
C         12.31461        14.21611        -0.37476
C         13.57574        16.35150        -0.62312
C         12.39037        17.07036        -0.53560
C         13.64074        19.21008        -0.93944
C         12.40618        18.56118        -0.37149
C         13.60519        20.62802        -1.15548
C         12.36250        21.30760        -1.11414
C         13.62840        23.52517        -1.32300
C         12.31685        22.74809        -1.36032
C         13.58814        24.93795        -0.93701
C         12.34563        25.60295        -0.81991
C         13.57316        27.68450        -0.30614
C         12.34155        26.99323        -0.49959
C         13.57655        29.11355        -0.08478
C         12.34913        29.81703        -0.02840
C         13.55973        31.95821         0.16234
C         12.33419        31.24119         0.14147
C         13.54403        33.38847         0.24494
C         12.31176        34.08328         0.40117
C         13.49391        36.23581         0.25073
C         12.28486        35.51083         0.41100
C         13.45977        37.67540         0.16602
C         12.20322        38.33201         0.15129
C         15.92139         3.62247         1.64588
C         14.66675         4.29434         1.40593
C         15.88616         6.41177         0.95904
C         14.67906         5.70915         1.03991
C         15.93003         7.81756         0.60868
C         14.72518         8.51987         0.38540
C         15.97517        10.57802        -0.03730
C         14.73715         9.90659         0.10834
C         15.99591        11.95764        -0.64583
C         14.74471        12.75450        -0.39685
C         16.05249        14.86322        -0.60843
C         14.77859        14.16257        -0.51697
C         16.06324        16.29615        -0.74422
C         14.83467        17.04746        -0.81396
C         16.09066        19.14580        -1.40099
C         14.82351        18.45882        -1.04098
C         16.14204        20.67393        -1.54634
C         14.83590        21.37096        -1.25040
C         16.08711        23.48397        -0.92013
C         14.86407        22.75566        -1.14521
C         16.06703        24.86361        -0.69594
C         14.81212        25.60052        -0.65455
C         16.06001        27.64742         0.14118
C         14.79949        26.97497        -0.34449
C         16.05915        29.14477        -0.04569
C         14.81625        29.83234        -0.01368
C         16.02875        31.98532         0.05000
C         14.80058        31.26074         0.05928
C         16.01037        33.42154         0.09159
C         14.76507        34.11588         0.17550
C         15.95766        36.27506         0.08941
C         14.73705        35.54499         0.17450
C         15.92179        37.71586         0.05137
C         14.67141        38.38546         0.06544
C         18.39087         3.66294         1.88291
C         17.11895         4.30516         1.67588
C         18.41618         6.47931         1.29867
C         17.11138         5.76525         1.45309
C         18.44727         7.71990         0.43628
C         17.16493         8.50742         0.49574
C         18.46297        10.58531         0.06519
C         17.18777         9.87681         0.15294
C         18.45880        11.99719        -0.23070
C         17.27965        12.70890        -0.40210
C         18.52681        14.85144        -0.52702
C         17.27144        14.14852        -0.53108
C         18.53597        16.27682        -0.61555
C         17.30667        16.97196        -0.75058
C         18.59679        19.14504        -0.78697
C         17.36524        18.40058        -1.11118
C         18.48056        20.57543        -0.31173
C         17.31213        21.35017        -0.85122
C         18.54881        23.46104        -0.51802
C         17.31526        22.72506        -0.74545
C         18.54946        24.84814        -0.59144
C         17.31370        25.59006        -0.54514
C         18.55843        27.71886        -0.28507
C         17.32555        26.96720        -0.31109
C         18.53668        29.14339        -0.13361
C         17.27409        29.85348        -0.05306
C         18.49571        32.02537        -0.02443
C         17.26474        31.28809        -0.01984
C         18.47766        33.45692         0.00382
C         17.22541        34.15206         0.04878
C         18.42081        36.32496        -0.00103
C         17.19857        35.58674         0.04793
C         18.37881        37.75868        -0.02589
C         17.13440        38.42883        -0.00964
C         19.59138         4.32186         1.75324
C         20.85763         6.41094         1.22785
C         19.67597         5.70715         1.39697
C         20.85759         7.81582         0.97867
C         19.70176         8.52681         0.68488
C         20.83586        10.76359         0.70542
C         19.66163         9.94386         0.44087
C         20.88710        12.06321         0.35114
C         19.79845        12.64533        -0.51281
C         20.95754        14.86098        -0.60606
C         19.76169        14.15260        -0.50777
C         20.97275        16.26173        -0.65502
C         19.78223        16.98940        -0.64117
C         20.97322        19.18900        -0.24391
C         19.76885        18.45151        -0.57150
C         20.98402        20.55384        -0.17227
C         19.78835        21.33490        -0.32788
C         20.98415        23.50456        -0.04132
C         19.78849        22.72488        -0.33015
C         21.00371        24.84735        -0.16266
C         19.85091        25.58156        -0.80088
C         20.98182        27.79917        -0.49277
C         19.79385        27.05675        -0.47652
C         20.96780        29.17673        -0.31747
C         19.75276        29.87654        -0.15270
C         20.92883        32.08308        -0.04371
C         19.73706        31.33084        -0.06433
C         20.91104        33.47124        -0.02009
C         19.70001        34.19052        -0.01169
C         20.85480        36.41453        -0.06265
C         19.67678        35.64849        -0.02187
C         20.81023        37.81718        -0.08574
C         19.59846        38.48747        -0.06998
O          6.62685        25.07944         0.70880
O         17.71239         6.57506         2.56478
O          9.86298         9.53476         2.19817
O          4.11769        27.71159        -2.05659
O          7.60862        34.63028         2.45522
O          5.36715        29.91566        -1.53169
O          6.45241        10.37273        -1.68849
O         16.83342        18.53417        -2.51045
O          5.88374         7.49849         2.30068
O         12.96882        23.20740        -2.59913
O          1.05093        23.73807        -2.52238
H          1.17190        22.84971        -2.94373
O         20.13047        12.26245        -1.89737
H         20.31012        11.29827        -1.89511
O          1.35058        21.01189        -2.84800
H          0.68130        20.51422        -3.36324
O          3.46368        11.96147         1.15525
H          3.45648        12.86439         1.53641
O         16.36358        20.95905        -2.96648
H         16.77973        20.15019        -3.35256
O         10.92132        16.57280         1.29559
H         11.48334        15.89066         1.72422
O          4.15709        37.88344        -0.57884
H          4.11861        36.91141        -0.69306
O          9.66449         5.21257        -0.57399
H          9.49711         5.98737        -1.15054
O         20.10269        25.53002        -2.25415
H         20.07197        24.58651        -2.52171
O          5.20895        33.69933         3.28963
H          6.08032        34.09831         3.52261
O         18.16254        20.41246         1.13896
H         18.97223        20.06357         1.57097
O         16.04719        27.45329         1.61426
H         15.25410        27.91743         1.95864
O         15.99223        11.72470        -2.11200
H         16.87467        11.37143        -2.35514
O         12.50568        18.78750         1.09878
H         11.82836        18.18600         1.50360
O          9.59908         4.85449         3.06595
H          9.49643         4.06055         3.63029
O          6.23894        16.05096        -2.99156
H          6.03815        16.90506        -3.43180
O          2.71928         5.47204        -1.68139
H          2.72580         6.38215        -2.07949
O          2.64402         8.17632        -2.09052
H          3.22306         8.91934        -2.42127
O          8.96001        15.99640        -2.66245
H          8.08077        15.76226        -3.05806
O         18.54180         7.21366        -0.94070
H         18.51291         7.98392        -1.54617
O          1.38134        14.69559        -3.23380
H          1.53506        13.74584        -3.42582
O         13.35195         7.52962        -1.26355
H         12.58820         6.93121        -1.41285
O          8.49316        12.64540         1.88601
H          9.02351        11.98581         2.38560
O          4.11080         5.64705         2.47385
H          4.42379         6.45730         2.94360
O          2.64855        25.68682         1.18931
H          2.78013        24.76960         1.50872
O          2.10277        21.01257         0.73545
H          2.90587        21.25445         1.24276
O          1.61962        27.15716        -1.99045
H          2.36322        27.14031        -2.63584
O          3.94344        10.57429        -2.22230
H          4.95602        10.54655        -2.32635
O          8.52867        23.73821        -2.82680
H          9.41499        24.05654        -3.10525
O          4.46770        37.96307         3.07416
H          3.96577        37.55498         3.81025
H          1.18583         2.44283         0.55848
H         -0.96568         3.66115         0.33041
H         -1.02746         6.10149         0.06008
H         -1.00319         8.06267         0.06823
H         -0.96659        10.47052        -0.20065
H         -0.98434        12.28879        -0.88576
H         -0.99144        14.59311        -1.60716
H         -0.93924        16.52209        -1.83936
H         -0.95765        18.96874        -1.70168
H         -0.95871        20.72694        -0.66367
H         -1.00253        23.13436        -0.33112
H         -1.02971        25.06157        -0.11736
H         -0.84590        27.24655         1.02757
H         -0.83864        29.09154         1.54907
H         -0.77986        31.42885         2.22634
H         -0.86041        33.41307         2.19247
H         -0.81269        35.86893         2.38756
H          0.34590        38.00174         2.12510
H          3.63850         2.45396         0.60852
H          2.39919        39.30785         1.79283
H          6.08477         2.54052         0.66038
H          4.77210        39.27110         0.81769
H          8.46671         2.53652         1.35370
H          7.18184        39.26409         0.12567
H         11.01081         2.59083         1.88365
H          9.71242        39.34965        -0.05462
H         13.45763         2.55028         1.75027
H         12.17164        39.42258         0.00851
H         15.90665         2.53594         1.82300
H         14.65167        39.48398         0.00693
H         18.38991         2.58913         2.12331
H         17.11508        39.52853        -0.03822
H         20.52926         3.76428         1.89692
H         21.82255         5.89839         1.35546
H         21.82582         8.33533         1.02367
H         21.66937        10.31833         1.26680
H         21.76911        12.66985         0.60193
H         21.91252        14.31983        -0.65309
H         21.94074        16.77585        -0.72215
H         21.91394        18.64179        -0.09799
H         21.94398        21.06528        -0.01335
H         21.87238        22.98711         0.34920
H         21.91613        25.40237         0.09962
H         21.94149        27.29532        -0.67160
H         21.92244        29.71710        -0.34975
H         21.90406        31.57922        -0.05038
H         21.87122        34.00391        -0.01278
H         21.83714        35.92413        -0.08010
H         21.75102        38.38444        -0.11873
H         19.56793        39.58623        -0.08983
