         314
 CSIRO Nanostructure Databank - Neutral Graphene Oxide Data Set
C         29.92675        56.80061        -0.96847
C         29.63099        58.16795        -0.75363
C         29.06233        59.02068        -1.75487
C         30.54289        61.09850        -1.52070
C         29.41697        60.36319        -1.94509
C         32.94379        53.01243        -0.26104
C         32.80060        54.36175        -0.01023
C         31.63711        54.95960        -0.63248
C         32.83872        57.29422         0.58182
C         31.00625        56.14724        -0.29847
C         32.93495        58.66149         0.10004
C         32.04551        59.14302        -0.99072
C         32.85820        61.38988        -0.61378
C         31.76855        60.59938        -0.99845
C         35.28353        48.70084         0.11489
C         35.27401        50.09584         0.27239
C         34.09288        50.85485         0.02998
C         35.27018        52.94342         0.56250
C         34.08208        52.24045         0.14916
C         35.24227        54.36092         0.73374
C         33.85752        55.01562         0.91538
C         35.19264        57.27636         1.11921
C         33.94188        56.53235         0.79530
C         35.18656        58.82447         1.12263
C         34.05210        59.41103         0.31950
C         35.27086        61.49521         0.02300
C         34.07695        60.80005        -0.11776
C         37.72840        44.40621        -0.12422
C         37.70083        45.80364         0.08461
C         36.49572        46.55192         0.03235
C         37.71352        48.64527         0.50329
C         36.48212        47.94807         0.22700
C         37.71541        50.05136         0.73112
C         36.48446        50.79545         0.62538
C         37.66534        52.92677         1.19040
C         36.45948        52.19848         0.76886
C         37.70816        54.38750         1.01278
C         36.45955        55.06246         0.88489
C         37.75318        57.26024         0.93021
C         36.48392        56.52867         1.10711
C         37.72190        58.69956         0.73503
C         36.50494        59.42741         0.68821
C         37.72600        61.49050         0.18587
C         36.50471        60.80797         0.33002
C         40.24035        40.16404        -0.66276
C         40.19192        41.55017        -0.36497
C         38.97522        42.27553        -0.34749
C         40.16597        44.36153         0.20288
C         38.94056        43.66954        -0.08378
C         40.15720        45.77616         0.38266
C         38.93487        46.50161         0.33060
C         40.16919        48.60616         0.72025
C         38.93504        47.91312         0.53568
C         40.17099        50.02263         0.85914
C         38.95096        50.72421         0.93703
C         40.23774        52.91602         1.15257
C         38.97373        52.16048         1.26429
C         40.20960        54.36946         1.15742
C         38.94868        55.07836         1.07461
C         40.20892        57.20918         0.79889
C         38.95615        56.52335         0.92888
C         40.18654        58.63902         0.40544
C         38.93338        59.39521         0.48345
C         40.19149        61.54024         0.21421
C         38.96007        60.80878         0.28964
C         42.70344        35.86227        -1.00871
C         42.68101        37.28222        -0.93503
C         41.50401        38.03713        -0.95589
C         42.66844        40.15935        -0.41283
C         41.46525        39.45509        -0.70480
C         42.65427        41.54127        -0.07311
C         41.41730        42.24607        -0.07061
C         42.62689        44.30255         0.52221
C         41.40267        43.63632         0.23266
C         42.58638        45.71080         0.93896
C         41.37239        46.47508         0.65546
C         42.65792        48.57914         0.80892
C         41.39410        47.87302         0.79197
C         42.61993        50.01575         0.72805
C         41.42593        50.73894         0.87818
C         42.70114        52.89187         1.15403
C         41.41485        52.18491         1.01257
C         42.72136        54.40083         1.24095
C         41.42487        55.10704         1.12874
C         42.69187        57.29781         1.05269
C         41.41844        56.52088         0.93428
C         42.70997        58.77861         0.78543
C         41.45940        59.43178         0.30779
C         42.67463        61.60435         0.29342
C         41.44390        60.91722         0.29774
C         45.31742        33.14145        -1.33629
C         44.08310        33.76303        -1.07105
C         45.02371        35.89112        -0.27303
C         43.90081        35.14629        -0.77735
C         45.19645        37.25747        -0.44081
C         43.98144        37.99165        -0.85785
C         45.15908        40.02880         0.09907
C         43.95321        39.46686        -0.56295
C         45.13265        41.51042         0.32913
C         43.87648        42.26306         0.13048
C         45.14444        44.46696         0.24162
C         43.86613        43.64453         0.36551
C         45.23745        45.64710         1.26747
C         43.91752        46.46162         1.20105
C         45.14316        48.50456         0.41948
C         43.87567        47.86921         0.81721
C         45.15196        49.99777         0.24741
C         43.85638        50.74459         0.38705
C         45.20070        52.94686         0.57111
C         43.90392        52.22303         0.59068
C         45.14355        54.40117         0.55155
C         43.99270        55.08660         0.86218
C         45.22047        57.32255         0.53301
C         44.00589        56.56714         0.97810
C         45.13298        58.74366         0.09772
C         43.93960        59.50639         0.41519
C         45.17862        61.59769         0.08608
C         43.93368        60.90940         0.23708
C         46.60786        33.69237        -1.30499
C         47.87367        35.87209        -0.82374
C         46.90148        34.90448        -0.62053
C         47.74114        37.23141        -0.32937
C         46.46075        37.91455        -0.22629
C         47.62957        40.04566         0.28327
C         46.46175        39.33017        -0.01427
C         47.62295        41.48544         0.47149
C         46.41290        42.22140         0.34481
C         47.60742        44.27030         0.54527
C         46.39654        43.62860         0.32965
C         47.81979        45.69950         0.95536
C         46.50801        46.47386         1.01086
C         47.63905        48.56776         0.27206
C         46.42735        47.77728         0.62598
C         47.66963        50.04436         0.46356
C         46.37538        50.76077         0.72782
C         47.63017        52.93679         0.06054
C         46.36379        52.24610         0.40286
C         47.68855        54.41005         0.17523
C         46.38467        55.10580         0.11720
C         47.70612        57.31756         0.09471
C         46.41400        56.58553         0.01820
C         47.68630        58.69026         0.05866
C         46.44365        59.46792        -0.16394
C         47.65728        61.62280         0.10777
C         46.44012        60.94364         0.00585
C         48.90975        37.97268        -0.10607
C         50.06030        39.99047         0.70791
C         48.89957        39.34507         0.29784
C         50.06407        41.39633         1.24271
C         48.83629        42.17094         0.77289
C         49.69740        44.58229         1.47886
C         48.78896        43.56424         0.82436
C         50.21593        45.71220         0.62013
C         48.94278        46.32530         0.05712
C         50.15127        48.51894         0.56211
C         48.92187        47.84090         0.06971
C         50.11942        50.01443         0.68587
C         48.85141        50.71695         0.40109
C         50.18274        52.87897         0.28236
C         48.91836        52.16040         0.10790
C         50.16503        54.34000         0.11531
C         48.88148        55.09110         0.17189
C         50.12961        57.22724         0.50107
C         48.94729        56.55633         0.22645
C         50.14323        58.70488         0.58918
C         48.95995        59.42840         0.02665
C         50.24628        61.62292         0.24768
C         48.95765        60.94386        -0.00076
C         51.34366        42.14263         0.89995
C         52.72394        44.19845         0.92157
C         51.61241        43.39712         1.36936
C         52.72795        45.59668         0.79992
C         51.44140        46.35262         0.76257
C         52.46463        48.60668         1.13852
C         51.44503        47.81293         0.64844
C         52.58265        50.03723         0.90333
C         51.39103        50.74887         0.65614
C         52.64617        52.82553         0.63091
C         51.39018        52.16506         0.48779
C         52.63835        54.27538         0.84807
C         51.43973        55.07352         0.45762
C         52.71464        57.26958         0.97161
C         51.38300        56.51771         0.84692
C         52.72400        58.73131         0.69359
C         51.43965        59.47241         0.70031
C         52.70598        61.54435         0.15767
C         51.43841        60.92019         0.34088
C         53.96190        46.19981         0.36552
C         55.12632        48.52561         0.18714
C         54.31573        47.54033         0.70273
C         55.18388        49.90090         0.87725
C         53.85556        50.67928         0.81148
C         55.10849        52.83566         0.50379
C         53.86469        52.09966         0.70157
C         55.12314        54.21623         0.41669
C         53.96334        55.02928         0.79401
C         55.09814        57.17831         0.29718
C         53.95906        56.50965         0.64247
C         55.20585        58.65775         0.67541
C         53.89686        59.38706         0.43247
C         55.12438        61.46090        -0.20153
C         53.90651        60.81889         0.15193
C         56.33442        50.70721         0.32905
C         57.51608        52.79248        -0.17960
C         56.33076        52.08175         0.20538
C         57.52858        54.18381        -0.38711
C         56.24455        54.90498        -0.24525
C         57.51902        57.08609        -0.53475
C         56.24029        56.43029        -0.28452
C         57.58952        58.55086        -0.43788
C         56.43250        59.35924         0.09142
C         57.49380        61.41407        -0.85123
C         56.34189        60.77853        -0.34383
C         58.66823        54.90574        -0.77113
C         59.85938        57.01654        -1.27816
C         58.67157        56.33782        -0.90399
C         59.83760        58.41198        -1.69392
C         58.57288        59.23637        -1.31637
C         59.82176        61.32625        -1.72120
C         58.65978        60.70984        -1.24977
C         61.03732        59.19968        -1.95251
C         60.98304        60.57170        -2.03554
O         58.70010        58.68561        -2.62556
O         50.69984        44.00466         2.29469
O         45.98934        35.18781         0.43391
O         43.62278        51.67281        -0.74528
O         43.06127        46.05946         2.30557
O         46.18905        55.80440        -1.18905
O         48.65644        45.41983         2.19755
O         51.09202        54.85600        -0.93810
O         53.32932        54.64780         2.06542
O         45.19066        49.16964        -0.92400
O         44.93605        40.54196         1.44536
O         51.95612        56.84250         2.13986
O         48.22785        48.34017        -1.10369
O         44.21500        38.97873        -1.92432
O         49.90846        49.16508         1.88183
O         42.88255        53.55124         2.44001
O         44.99137        57.08286         1.95173
O         48.24043        52.45248        -1.19075
O         40.90491        58.83442        -0.90205
O         49.13504        60.10394        -1.25043
O         31.76462        58.38929        -1.92253
O         50.59679        59.21557         1.88434
O         38.21411        52.48265         2.48362
O         55.81427        55.60712        -1.45723
O         35.75782        56.81751         2.41181
O         53.52457        47.99589         1.80179
O         45.63122        58.96441        -1.26916
O         31.54213        56.81156         0.81673
O         57.61429        59.11083         0.93828
O         42.63646        58.26425         2.16412
O         45.08857        45.10239        -1.06193
H         45.14075        44.41065        -1.75382
O         46.21443        50.69364         2.19235
H         47.04907        50.98367         2.61886
O         55.36677        58.67100         2.11912
H         56.33513        58.66555         2.30171
O         33.46756        54.69885         2.27746
H         34.11839        55.13757         2.86895
O         29.99672        58.79292         0.37915
H         30.47708        58.15892         0.96900
O         55.49954        49.70470         2.28573
H         54.80738        49.10037         2.64500
O         34.97266        59.24786         2.49758
H         35.44974        58.59383         3.06165
O         48.79633        45.86897        -1.29624
H         48.37651        46.60680        -1.80167
O         49.96643        41.30737         2.69441
H         50.05940        42.22653         3.03869
O         45.36927        45.07270         2.56927
H         44.48889        45.12723         3.01131
H         29.57178        56.34743        -1.90459
H         28.34566        58.57864        -2.46333
H         30.50645        62.18318        -1.71776
H         28.73658        60.92892        -2.60629
H         32.15824        52.48960        -0.82868
H         31.16912        54.35530        -1.42572
H         32.80990        62.48529        -0.71915
H         34.34694        48.18183        -0.13830
H         33.17994        50.33097        -0.28991
H         35.32340        62.55982        -0.25072
H         36.78797        43.87693        -0.33849
H         35.54926        46.03006        -0.17370
H         37.72100        62.56717        -0.03920
H         39.30239        39.62981        -0.87530
H         38.03436        41.75030        -0.56975
H         40.13803        62.63578         0.12797
H         41.77846        35.31873        -1.25293
H         40.54411        37.51229        -1.07750
H         42.67200        62.70314         0.23999
H         45.24208        32.13314        -1.77531
H         43.18031        33.18628        -1.32531
H         45.16444        62.69799         0.09261
H         47.40641        33.18231        -1.86338
H         48.75956        35.63678        -1.43240
H         47.65437        62.70439         0.31079
H         49.88140        37.46138        -0.17919
H         51.00517        39.42524         0.73003
H         50.27885        62.71751         0.13232
H         52.05281        41.68651         0.19311
H         53.63829        43.65774         0.62911
H         52.73501        62.62098        -0.06806
H         54.71882        45.54050        -0.08838
H         55.75955        48.33583        -0.69122
H         55.09273        62.53307        -0.44855
H         57.27104        50.16271         0.13170
H         58.44483        52.22077        -0.32640
H         57.44864        62.49661        -1.04580
H         59.60725        54.36427        -0.95818
H         60.80703        56.46015        -1.32833
H         59.87877        62.42351        -1.73906
H         62.00286        58.67861        -2.02324
H         61.90367        61.12257        -2.27670
