         314
 CSIRO Nanostructure Databank - Neutral Graphene Oxide Data Set
C         30.28611        57.05640        -1.03639
C         30.52616        58.54855        -0.91180
C         29.49726        59.40265        -0.49021
C         30.89106        61.34666        -0.89619
C         29.68428        60.79277        -0.48813
C         32.69663        52.87891         0.17121
C         32.77787        54.21635        -0.16561
C         31.55482        54.97195        -0.40641
C         32.80803        56.78611        -1.45277
C         31.55431        56.24390        -0.88115
C         32.82721        58.23868        -1.83492
C         31.74665        59.10593        -1.33036
C         33.24481        61.06464        -1.61610
C         31.95599        60.51233        -1.31982
C         35.17646        48.62598         0.79886
C         35.13778        50.05576         0.90316
C         33.93284        50.73682         0.80448
C         35.11457        53.01374         0.94929
C         33.84116        52.20534         0.78315
C         35.24573        54.31849         0.24632
C         34.06327        54.88223        -0.25980
C         35.41450        56.80152        -1.29911
C         34.11719        56.09826        -1.08383
C         35.33984        57.93920        -2.05135
C         34.16825        58.84402        -2.14683
C         35.64124        60.98050        -1.74857
C         34.39225        60.30183        -1.88303
C         37.73502        44.39905         0.30360
C         37.70258        45.81242         0.40148
C         36.45878        46.51763         0.52353
C         37.62301        48.70905         0.53176
C         36.37923        47.91431         0.64396
C         37.58771        50.11163         1.00503
C         36.39512        50.78246         1.12572
C         37.64386        53.03653         1.29673
C         36.36145        52.26098         1.31806
C         37.70894        54.38000         0.64960
C         36.52977        54.94230         0.07119
C         37.99836        56.89648        -0.76887
C         36.67701        56.13752        -0.82738
C         38.18059        58.32902        -1.17735
C         37.26931        59.12546        -1.88879
C         37.93556        61.39843        -0.99210
C         36.98908        60.52103        -1.62733
C         40.19568        40.11771        -0.05278
C         40.16131        41.55343        -0.11194
C         38.97977        42.26790         0.02337
C         40.17462        44.43445         0.14772
C         38.95150        43.70773         0.14235
C         40.18039        45.83182         0.34415
C         38.94257        46.51536         0.42380
C         40.19839        48.68025         0.79597
C         38.94395        47.98448         0.42407
C         40.14827        50.01998         1.07124
C         38.88180        50.75208         1.29200
C         40.17625        52.98605         1.20524
C         38.92027        52.26884         1.42892
C         40.19406        54.35984         0.96591
C         38.95884        55.03674         0.64182
C         40.33188        57.15213         0.36151
C         38.95040        56.51891         0.38144
C         40.42409        58.54119        -0.03294
C         39.39445        58.96975        -0.89195
C         40.40040        61.59353        -0.17405
C         39.30620        61.09820        -0.91836
C         42.52185        35.74945        -0.57953
C         42.18234        37.08306        -0.86749
C         41.26767        37.94246        -0.23942
C         42.58384        40.15389        -0.79520
C         41.33616        39.37277        -0.33083
C         42.60494        41.56314        -0.22755
C         41.43582        42.26057        -0.15528
C         42.70412        44.45179         0.08638
C         41.43086        43.76030        -0.32308
C         42.68675        45.84646         0.36529
C         41.44439        46.55208         0.45300
C         42.68035        48.59388         1.03040
C         41.45431        47.93810         0.76735
C         42.66205        49.98735         1.50995
C         41.36666        50.74093         1.48958
C         42.71334        52.96926         1.27145
C         41.41711        52.21288         1.20932
C         42.67830        54.43697         1.36852
C         41.45984        55.08229         1.07595
C         42.65128        57.28889         1.19727
C         41.44933        56.49689         0.83831
C         42.78706        58.64928         0.57930
C         41.55687        59.36813         0.17186
C         42.80946        61.50262         0.32239
C         41.56968        60.80031         0.05681
C         45.18546        33.08917        -0.74914
C         43.93477        33.76899        -0.67900
C         45.09231        35.94183        -0.79772
C         43.81035        35.15195        -0.80697
C         45.22992        37.35407        -1.28997
C         44.03872        38.23110        -1.24511
C         45.20462        39.98280        -0.01670
C         43.92059        39.43108        -0.64764
C         45.18290        41.51998         0.12099
C         43.87490        42.26654         0.07382
C         45.15692        44.43013         0.22466
C         43.91434        43.75104         0.06388
C         45.17348        45.83848         0.42915
C         43.92916        46.52872         0.56098
C         45.17586        48.61322         0.93699
C         43.93000        47.92130         0.86767
C         45.16129        50.08415         1.00040
C         43.95542        50.75885         1.55228
C         45.23484        53.01127         1.41387
C         43.97553        52.24947         1.59879
C         45.15881        54.43254         1.59367
C         43.92796        55.11661         1.60394
C         45.17627        57.38727         1.85649
C         43.88303        56.59738         1.73337
C         45.23379        58.81504         1.41898
C         44.06052        59.40351         0.69739
C         45.27806        61.56097         0.64977
C         44.01692        60.87734         0.55771
C         46.38155        33.75174        -0.78147
C         47.70454        35.93955        -0.84194
C         46.42608        35.21219        -0.66401
C         47.81053        37.31198        -0.95290
C         46.53469        38.06618        -1.24266
C         47.43748        40.31243        -1.04401
C         46.38792        39.50147        -0.84701
C         47.64171        41.59331        -0.35989
C         46.39495        42.33166        -0.10994
C         47.64589        44.44815         0.03298
C         46.41051        43.72346         0.07145
C         47.66650        45.85239         0.28499
C         46.41957        46.54474         0.51270
C         47.65713        48.69730         0.80438
C         46.41096        47.95619         0.73124
C         47.69553        50.10304         1.00050
C         46.44074        50.87470         0.96552
C         47.70310        52.99046         1.41090
C         46.43974        52.31328         1.33348
C         47.72074        54.40472         1.56557
C         46.45024        55.13228         1.84753
C         47.75522        57.38907         1.75408
C         46.47027        56.63258         2.00799
C         47.72541        58.79057         1.24837
C         46.53264        59.48471         1.13740
C         47.76239        61.68104         0.89580
C         46.47479        60.89567         0.83535
C         49.10557        37.94138        -0.80287
C         50.43708        40.13918        -0.74424
C         49.39170        39.27468        -1.12707
C         50.29309        41.57430        -0.70080
C         48.98652        42.24341        -0.31870
C         50.19205        44.51022        -0.37060
C         48.90829        43.74806        -0.33736
C         50.21499        46.00128        -0.08591
C         48.88606        46.58926         0.35655
C         50.11595        48.67313         0.93901
C         48.88727        47.97213         0.69027
C         50.11851        50.03613         1.23854
C         48.91030        50.79874         1.21463
C         50.14774        52.96610         1.43400
C         48.92384        52.25037         1.36395
C         50.16654        54.37992         1.39393
C         48.93947        55.09230         1.49256
C         50.12421        57.17157         0.70686
C         48.99830        56.57986         1.52775
C         50.16796        58.68459         0.73340
C         48.98189        59.42826         0.89407
C         50.14647        61.46460         0.20487
C         48.99548        60.84299         0.63909
C         51.44531        42.34565        -0.62640
C         52.63815        44.36601         0.04830
C         51.46996        43.75104        -0.30398
C         52.70631        45.69025         0.75974
C         51.35900        46.42899         0.82550
C         52.65719        48.60083         1.17708
C         51.36598        47.89079         1.13154
C         52.66922        49.99019         1.35852
C         51.39073        50.70107         1.59897
C         52.67612        52.88653         1.32350
C         51.40885        52.21532         1.63222
C         52.70266        54.36683         1.41597
C         51.42920        55.13176         1.33277
C         52.66895        57.28113         0.92515
C         51.43180        56.48180         1.06111
C         52.61266        58.62744         0.31870
C         51.37275        59.33652         0.35594
C         52.54932        61.36380        -0.37749
C         51.36710        60.73976         0.05079
C         53.82588        46.58781         0.31121
C         55.09175        48.63323         0.72878
C         53.87058        47.93192         0.71772
C         55.19770        49.99994         1.33087
C         53.87411        50.73037         1.26192
C         55.02069        52.80493         0.50696
C         53.84488        52.14710         1.14054
C         55.05988        54.29299         0.40592
C         53.99220        55.07641         1.09475
C         55.12078        57.16045         0.13802
C         54.00367        56.55482         0.88017
C         55.04380        58.52084        -0.22676
C         53.79594        59.25293        -0.10643
C         54.93291        61.26857        -0.97610
C         53.76095        60.64200        -0.50197
C         56.33212        50.71705         0.66007
C         57.41909        52.76838        -0.15620
C         56.28747        52.05914         0.31651
C         57.45235        54.19128        -0.29909
C         56.31048        54.97818         0.03947
C         57.43802        57.02619        -0.70195
C         56.29081        56.38290        -0.15265
C         57.39523        58.41972        -0.99192
C         56.19236        59.15947        -0.78538
C         57.30590        61.18034        -1.64349
C         56.14642        60.55404        -1.13710
C         58.61195        54.85747        -0.76431
C         59.76334        56.92224        -1.48823
C         58.62151        56.25774        -0.97921
C         59.74590        58.30990        -1.75889
C         58.54921        59.06325        -1.52771
C         59.67600        61.08201        -2.35775
C         58.50798        60.45902        -1.84055
C         60.88800        58.98036        -2.27843
C         60.84178        60.34394        -2.56457
O         46.48852        55.78740         3.18245
O         44.08989        51.45355         2.83267
O         42.19638        52.48192        -0.02792
O         49.46252        44.24708        -1.62563
O         44.47643        41.84375         1.37873
O         45.96250        37.61694        -2.53691
O         36.42252        58.46369        -2.75830
O         39.68797        60.01916        -1.75870
O         38.29432        48.56870        -0.77569
O         34.17003        52.93430         2.05475
O         42.87738        57.15397         2.63972
O         45.63514        50.66859        -0.26704
O         51.37913        51.41679         2.87734
O         45.70698        35.77190         0.51494
O         33.21763        58.52529        -3.21813
O         45.04557        58.48183         2.82694
O         41.89498        50.22739         2.74483
O         33.43940        55.88610        -2.39933
O         53.58521        57.27591         2.07461
O         36.88186        52.89154         2.54071
O         48.47388        41.59108         0.89156
O         54.55571        53.48744        -0.73152
O         48.42932        39.91782        -1.93722
O         37.77254        55.93335        -1.81351
O         38.93607        51.41609         2.61095
O         51.05705        46.82702         2.18280
O         48.76235        57.20383         2.81223
O         42.93142        37.68097        -1.91045
O         43.77892        58.65099        -0.54024
O         53.68954        54.73316         2.47095
O         45.34436        39.42166         1.30306
H         44.92613        40.05501         1.93134
O         42.39264        40.37071        -2.22948
H         42.40498        39.47837        -2.64784
O         47.71846        62.81408         0.02440
H         47.59235        62.49363        -0.89197
O         41.39232        43.92580        -1.79593
H         40.67254        43.35321        -2.13838
O         50.54277        46.64243        -1.35716
H         50.03530        46.15871        -2.04939
O         55.54191        49.87617         2.76568
H         54.75045        49.53937         3.23702
O         38.29368        57.14559         1.54334
H         38.78187        56.87434         2.35038
O         29.73049        56.79099        -2.33957
H         30.41300        57.00177        -3.01096
O         53.09984        45.34631         2.12779
H         52.53351        45.89991         2.72319
O         49.81649        56.80676        -0.68006
H         50.47663        57.23707        -1.26345
H         29.52368        56.72645        -0.28770
H         28.53297        58.97756        -0.17783
H         31.03235        62.43684        -0.88557
H         28.86527        61.44854        -0.16157
H         31.73826        52.34505         0.08903
H         30.60881        54.50933        -0.08614
H         33.36556        62.15068        -1.47736
H         34.22238        48.07769         0.78684
H         33.01339        50.16575         0.60435
H         35.52056        62.05143        -1.50864
H         36.79027        43.83582         0.31123
H         35.52991        45.92817         0.55258
H         37.55493        62.31832        -0.52451
H         39.25765        39.58968         0.18061
H         38.02675        41.72339         0.10156
H         40.39488        62.63025         0.19564
H         41.79545        35.13896        -0.01898
H         40.47780        37.50960         0.39509
H         42.79281        62.60054         0.24101
H         45.17477        31.99077        -0.79512
H         43.01980        33.16456        -0.59569
H         45.30098        62.65096         0.49891
H         47.32378        33.20316        -0.92349
H         48.62468        35.34045        -0.75003
H         47.85457        62.09457         1.94114
H         49.88823        37.34433        -0.30918
H         51.40438        39.71860        -0.42702
H         50.12804        62.54294        -0.01102
H         52.41883        41.84132        -0.72777
H         53.56418        43.77028         0.06310
H         52.53593        62.43602        -0.62252
H         54.74581        46.12096        -0.07408
H         56.00615        48.12140         0.39430
H         54.89792        62.33341        -1.25004
H         57.27030        50.15798         0.52057
H         58.34232        52.20515        -0.36026
H         57.27115        62.24960        -1.90004
H         59.51156        54.27171        -1.00429
H         60.67804        56.34492        -1.68925
H         59.65236        62.15495        -2.59598
H         61.81104        58.41001        -2.45515
H         61.73512        60.84389        -2.96462
