         210
 CSIRO Nanostructure Databank - Neutral Graphene Oxide Data Set
C         30.93637        31.36398         1.38106
C         31.04575        32.57961         1.66250
C         31.14416        35.64217         2.35563
C         31.18886        36.86193         2.61373
C         31.37879        39.91388         3.30914
C         31.42059        41.11657         3.65320
C         32.94517        28.87556        -0.52058
C         31.99487        29.32607         0.17075
C         33.07962        31.46230         0.28160
C         31.91674        30.65079         0.64393
C         33.14477        32.85765         0.64488
C         32.07612        33.50347         1.36174
C         33.22915        35.70247         1.23906
C         32.11959        34.88011         1.65651
C         33.27518        37.11888         1.53194
C         32.22490        37.77133         2.25458
C         33.40192        39.95433         2.10718
C         32.30034        39.14378         2.56258
C         33.50658        41.35660         2.47155
C         32.49279        41.97840         3.29651
C         33.81617        43.91717         3.28207
C         32.77350        43.32468         3.64632
C         35.46540        27.71965        -2.22124
C         35.13801        29.04431        -1.83043
C         34.10761        29.53034        -0.97161
C         35.32796        31.68671        -0.74477
C         34.15663        30.88657        -0.48040
C         35.36251        33.04036        -0.39933
C         34.26879        33.66765         0.26453
C         35.45903        35.86642         0.18426
C         34.29707        35.07454         0.54123
C         35.48976        37.26955         0.43986
C         34.37403        37.92469         1.08464
C         35.40690        40.17842         0.58502
C         34.40490        39.31982         1.32520
C         35.68266        41.52382         1.22451
C         34.68268        42.10209         2.05909
C         36.01127        44.20048         2.05359
C         34.88543        43.45995         2.48202
C         36.28106        45.55748         2.34566
C         37.93262        27.46268        -2.18955
C         36.56814        27.13246        -2.34422
C         38.13120        28.85977        -2.40116
C         36.20615        29.93227        -2.14598
C         37.79218        31.71207        -1.37368
C         36.46197        31.11453        -1.45586
C         37.80457        33.08532        -1.01552
C         36.49567        33.85308        -0.97413
C         37.81428        35.92070        -0.47046
C         36.59598        35.22242        -0.36048
C         37.83808        37.33477        -0.29447
C         36.65056        38.03405         0.09511
C         37.78348        40.21793        -0.22179
C         36.67217        39.45066         0.21411
C         37.83484        41.61591        -0.00933
C         36.82734        42.25285         0.80774
C         38.08917        44.43866         0.66627
C         37.00299        43.63262         1.18721
C         38.15043        45.84032         0.93088
C         37.19766        46.27296         1.87845
C         39.84211        24.74260        -0.50470
C         38.92637        25.39716        -1.07510
C         40.24122        27.34033        -1.24658
C         38.97137        26.72474        -1.53363
C         40.45103        28.79616        -1.67890
C         39.15850        29.59142        -1.79102
C         40.26449        31.66083        -1.04077
C         39.05171        30.98293        -1.46340
C         40.23384        33.04749        -0.79457
C         39.02067        33.77066        -0.84458
C         40.24075        35.93251        -0.81386
C         39.03692        35.22131        -0.71578
C         40.22998        37.36882        -0.86892
C         39.02128        38.04407        -0.60710
C         40.21387        40.22363        -1.17725
C         38.92810        39.49273        -0.82542
C         40.21680        41.71389        -1.07231
C         38.96469        42.42495        -0.52155
C         40.32197        44.51167        -0.49076
C         39.14485        43.82826        -0.10558
C         40.32232        45.98747        -0.48404
C         39.07629        46.69578         0.21379
C         40.42012        48.67396         0.14906
C         39.44236        48.05072         0.60462
C         42.24124        24.67498         0.46927
C         41.12310        25.24659        -0.22761
C         42.69920        27.26353        -0.65831
C         41.30201        26.61935        -0.66669
C         42.65066        28.78045        -0.54203
C         41.53762        29.50473        -0.90970
C         42.70681        31.64383        -0.48472
C         41.50607        30.94124        -0.82227
C         42.73237        33.06901        -0.42871
C         41.43375        33.79500        -0.27211
C         42.69907        35.89197        -0.81667
C         41.49647        35.22490        -0.74459
C         42.72488        37.31323        -1.32868
C         41.45906        38.09106        -1.05483
C         42.73492        40.22384        -1.16618
C         41.48835        39.48052        -1.10756
C         42.70178        41.64758        -1.19602
C         41.51274        42.40607        -1.02358
C         42.75938        44.56363        -1.09692
C         41.52327        43.82148        -0.89369
C         42.76972        45.99744        -0.97859
C         41.59169        46.74044        -0.62893
C         42.90822        48.74402        -0.60796
C         41.64543        48.15039        -0.36577
C         43.23985        25.37961         0.74493
C         44.77200        27.36596         0.88310
C         43.67400        26.67932         0.43012
C         45.07407        28.75113         0.39920
C         43.91671        29.48739        -0.30141
C         45.13890        31.63501         0.03317
C         43.93462        30.94977        -0.26369
C         45.18197        33.08418        -0.09496
C         43.93467        33.78154        -0.33502
C         45.13167        35.95282        -0.39085
C         43.93578        35.21604        -0.49918
C         45.14090        37.36360        -0.65278
C         43.97411        38.07571        -0.95390
C         45.23936        40.20576        -0.97750
C         43.97446        39.49911        -1.07763
C         45.25805        41.64468        -1.33967
C         43.94775        42.38614        -1.47765
C         45.19337        44.55354        -1.61130
C         43.96520        43.87264        -1.40029
C         45.19915        45.96386        -1.48848
C         44.02692        46.67443        -1.17631
C         43.90140        48.06245        -0.95666
C         46.74508        27.66704         2.23964
C         45.77082        27.00160         1.83448
C         47.09956        29.01219         1.90843
C         46.13740        29.57998         1.00221
C         47.51071        31.63928         0.89044
C         46.24179        30.93273         0.62242
C         47.59189        33.13847         0.55825
C         46.34750        33.82040         0.13783
C         47.47609        35.99832         0.40164
C         46.35159        35.27014         0.04701
C         47.45787        37.47621         0.25479
C         46.49078        38.03319        -0.77150
C         47.71934        40.27660        -0.71330
C         46.42726        39.54728        -0.75890
C         47.76777        41.74672        -0.83363
C         46.46305        42.51311        -0.98994
C         47.85144        44.52246        -1.71891
C         46.48261        43.76341        -1.92384
C         47.62530        45.97312        -1.71768
C         46.52212        46.51220        -1.58154
C         49.22835        29.33913         3.24685
C         48.20267        29.76052         2.36424
C         49.56906        31.87018         2.31987
C         48.45975        31.09820         1.88553
C         49.67035        33.28218         1.92987
C         48.66722        33.91543         1.19056
C         49.79214        36.18944         1.45711
C         48.81070        35.33321         0.68229
C         49.81763        37.58581         1.26473
C         48.66215        38.26741         0.62542
C         49.96787        40.45877         0.55546
C         48.90182        39.60625        -0.01211
C         50.04882        41.83091         0.17870
C         48.93922        42.43033        -0.57542
C         50.15516        44.54699        -0.44541
C         49.01737        43.86280        -1.06363
C         50.25349        29.95681         3.61477
C         51.63368        32.13833         3.55692
C         50.57089        31.28193         3.22389
C         51.65793        33.34358         3.17141
C         50.77970        34.10795         2.41183
C         51.78388        36.43327         2.66048
C         50.81797        35.51655         2.18730
C         51.81249        37.67744         2.48150
C         50.86249        38.42676         1.75152
C         51.87616        40.76306         1.83928
C         50.90746        39.83363         1.44227
C         51.99997        41.99143         1.56360
C         51.12446        42.66231         0.70156
C         50.99544        44.03040         0.30182
O         47.47183        38.24567         1.51458
O         45.03511        28.87691        -1.05774
O         48.80721        39.61557        -1.45786
O         37.13501        29.54261        -3.12615
O         39.16339        46.51413        -1.20607
O         44.66856        41.85025        -2.64851
O         48.12049        32.11847        -0.36181
O         48.90063        43.96739        -2.52300
O         39.28912        39.79189        -2.22139
O         39.23624        42.30594        -1.96218
O         42.78897        37.18269        -2.79549
H         42.61572        38.06758        -3.18289
O         46.20570        43.06790         0.33839
H         46.28846        42.35191         1.00321
O         47.01839        37.63007        -2.06723
H         46.44010        38.00048        -2.76651
O         49.43840        35.19244        -0.64396
H         48.95172        34.49970        -1.14188
O         41.21060        33.87534         1.19391
H         41.97807        34.35013         1.57913
O         36.12573        34.10889        -2.37842
H         36.10682        33.24292        -2.83994
O         46.46083        43.40880        -3.29752
H         47.38269        43.22750        -3.58791
O         40.99213        28.74319        -3.03817
H         40.36611        28.24150        -3.60214
O         43.28619        26.93602        -1.92944
H         44.08148        27.51056        -2.04386
O         34.73816        40.49012        -0.69760
H         35.39649        40.93388        -1.27516
