         276
 CSIRO Nanostructure Databank - Neutral Graphene Oxide Data Set
C        -11.11012         0.33284        -0.69705
C         -9.78273         1.04109        -0.94299
C         -8.79350         0.54131         0.09584
C         -7.47327         1.21936         0.12473
C         -6.30420         0.57849         0.77674
C         -5.14765         1.48506         1.12692
C         -3.93172         0.78005         1.65451
C         -2.64256         1.58035         1.76787
C         -1.30889         0.87614         1.93152
C         -0.03104         1.65838         1.77300
C          1.22600         0.83075         2.14305
C          2.57610         1.54764         1.92946
C          3.84920         0.76150         1.78076
C          4.96303         1.25575         0.84638
C          6.39078         0.64695         1.12401
C          7.33833         0.99577        -0.03352
C          8.60980         0.19221        -0.23021
C          9.89983         0.92495        -0.43169
C         11.15766         0.19178        -0.15081
C         -9.77269         2.55886        -0.97336
C         -8.69093         3.30159        -0.65028
C         -7.46558         2.74154         0.05930
C         -6.10973         3.21613        -0.55542
C         -5.03006         2.84247         0.49303
C         -3.74421         3.61770         0.54505
C         -2.65384         3.06437         1.42437
C         -1.33942         3.81428         1.54109
C         -0.04906         3.02716         1.66073
C          1.25127         3.78041         1.53393
C          2.54650         3.01089         1.56061
C          3.63435         3.46008         0.57805
C          5.03508         2.82307         0.80150
C          6.04182         3.29664        -0.34062
C          7.30342         2.42722        -0.48659
C          8.59844         3.12065        -0.75014
C          9.91319         2.44272        -0.38197
C         -8.72127         4.81511        -0.66734
C         -7.35950         5.49211        -0.79957
C         -6.09236         4.70308        -0.92703
C         -4.77180         5.43889        -0.86067
C         -3.65662         4.86142        -0.02401
C         -2.58037         5.81095         0.41223
C         -1.30861         5.33244         1.19209
C         -0.06789         5.74824         0.38327
C          1.25152         5.27030         1.04424
C          2.45247         5.68241         0.10315
C          3.75805         4.98363         0.47860
C          5.06139         5.60628         0.04928
C          6.37205         4.78932         0.01121
C          7.39880         5.26707        -1.02447
C          8.60888         4.44805        -1.04490
C         -7.33345         6.84485        -0.67345
C         -6.13780         7.64974        -0.99785
C         -4.83292         6.91832        -1.17125
C         -3.49252         7.66194        -1.28178
C         -2.52849         7.18434        -0.19465
C         -1.24372         7.98291        -0.17654
C          0.01280         7.29225         0.21468
C          1.33116         7.99374        -0.05559
C          2.59758         7.21028         0.07965
C          3.84350         7.76225        -0.55405
C          4.90513         6.76498        -0.89660
C          5.99886         7.16565        -1.82644
C          7.26181         6.39470        -1.76679
C         -6.08996         9.11152        -0.78113
C         -4.93384         9.80244        -0.90108
C         -3.63453         9.18151        -1.12739
C         -2.48839         9.90693        -1.09192
C         -1.15394         9.19292        -1.12930
C          0.05105        10.09510        -0.78350
C          1.33673         9.28022        -0.80884
C          2.46222         9.73726        -1.41143
C          3.77468         9.04744        -1.32414
C          4.86151         9.32357        -2.30345
C          5.92645         8.51132        -2.45631
C        -11.14731        -0.96750        -0.34286
C         -9.85410        -1.75586        -0.21924
C         -8.84348        -0.87973         0.49768
C         -7.64249        -1.57567         1.07639
C         -6.39837        -0.80711         1.36150
C         -5.12584        -1.56239         1.35539
C         -3.91095        -0.73583         1.64608
C         -2.57808        -1.42558         1.61449
C         -1.29783        -0.63449         1.74608
C         -0.05525        -1.22927         1.14631
C          1.23231        -0.50463         1.35673
C          2.45823        -1.37671         1.48674
C          3.77150        -0.74479         1.78803
C          5.05854        -1.53417         1.71087
C          6.36711        -0.84414         1.47242
C          7.71527        -1.58712         1.41662
C          8.55562        -1.31825         0.09072
C          9.94829        -1.91230         0.36773
C         11.15615        -1.12311         0.15652
C         -9.77484        -3.15254         0.42437
C         -8.48071        -3.82515        -0.00787
C         -7.71958        -3.09221         1.07364
C         -6.41170        -3.74663         1.63902
C         -5.13884        -2.92298         1.22833
C         -3.85984        -3.53153         0.74968
C         -2.58900        -2.73235         0.86419
C         -1.29535        -3.48043         0.73649
C         -0.02525        -2.71679         0.88857
C          1.23001        -3.32527         0.34168
C          2.50812        -2.69692         0.78134
C          3.63774        -3.68098         1.08914
C          4.96666        -3.04057         1.56286
C          6.24998        -3.81757         1.44862
C          7.58844        -3.12163         1.55878
C          8.82974        -3.91512         1.31716
C         10.03981        -3.16066         0.89210
C         -8.40887        -5.17193        -0.16019
C         -7.57767        -5.96423         0.83984
C         -6.27880        -5.22276         1.20127
C         -4.99861        -5.77495         0.62993
C         -3.72857        -4.99771         0.52294
C         -2.53798        -5.59366         0.21768
C         -1.32449        -4.72615        -0.14320
C          0.01166        -5.45834        -0.20638
C          1.22859        -4.77123        -0.01915
C          2.46414        -5.41806        -0.26758
C          3.78746        -4.64421        -0.13693
C          4.97200        -5.58420         0.03319
C          6.20927        -5.17704         0.77336
C          7.47953        -5.89543         0.44815
C          8.78575        -5.42712         1.06798
C         -7.37829        -7.40324         0.45334
C         -6.23190        -7.87200        -0.11697
C         -5.19174        -6.84061        -0.42256
C         -3.35924        -8.10545         0.44237
C         -2.21741        -7.09358         0.24914
C         -1.30807        -7.43066        -0.96730
C          0.03026        -6.78133        -0.68819
C          1.24901        -7.45545        -0.89620
C          2.46411        -6.77124        -0.64393
C          3.72607        -7.44787        -1.05496
C          5.02912        -6.73417        -0.93419
C          6.35399        -7.43933        -1.22106
C          7.48410        -7.00482        -0.31933
C         -6.02672        -9.25362        -0.47326
C         -4.79490        -9.81888        -0.76438
C         -3.54195        -9.19085        -0.56338
C         -2.34476        -9.69123        -1.15853
C         -1.21950        -8.90984        -1.26002
C         -0.01300        -9.38226        -2.02008
C          1.28286        -8.80482        -1.48185
C          2.44250        -9.49112        -1.63058
C          3.70979        -8.95894        -1.00858
C          5.00896        -9.57607        -1.46329
C          6.18706        -8.93822        -1.39011
O         -3.33442        -2.69080        -0.38948
O          0.55370        -0.44478         0.07173
O          4.50715         0.73299        -0.40993
H          5.21503         0.85158        -1.09624
O         -5.63921         7.21780        -2.32181
O          9.15589         0.40864        -1.56812
H          3.29667        -3.38926        -1.59297
O         -3.18590         6.97981         1.08333
O         -7.32819        -1.08603         2.43854
O          9.88551        -5.81463         0.24737
H          9.76152        -5.42955        -0.64507
O          2.14395         8.02165         1.17262
O          3.05559         2.96555        -0.66221
H          3.78170         2.83928        -1.32567
O         -5.85278         2.47723        -1.74084
H         -5.42787         3.08623        -2.39360
O         -9.36955        -2.00628        -1.56585
H         -9.29334        -1.13633        -2.03995
O         -7.54952         3.25001         1.35890
O         -4.18802         0.02143         2.86585
O         -1.87193        -6.88959        -2.17910
O         -2.06037         1.33185         3.07611
O          4.27071        -6.68238        -2.18459
O          6.80177        -6.98450        -2.53382
H          5.98939        -6.85647        -3.07703
O         -2.30268         3.76093         2.65546
O         -9.13355        -3.16563         1.78645
O         -9.28172         0.61252        -2.25030
H         -9.83183         1.03502        -2.94277
O          3.54872         1.38410         3.03905
O          2.95281        -1.33345         2.84817
O         -9.39007         0.16185         1.36087
O          8.38736        -3.59030         2.69347
O          2.03422        -2.52623        -0.59285
O         -1.25432         6.01074         2.44511
H         -1.96941         5.65019         3.01667
O         -5.53865         2.69307         1.85721
O         -5.42035        -6.07657         1.99288
O         -1.40554        -7.27057         1.43418
H         -2.01904        -7.33199         2.20173
O          6.85535         1.31596        -1.37826
O         -0.54459        -3.55550         1.97186
O         -3.90684        -8.18520         1.53743
O          5.87468        -1.06645         2.83289
O          7.86586        -2.00679        -0.87746
O         -5.21361         4.78975        -2.10269
O         -8.42138        -5.99597         2.01113
H         -8.61302        -5.07025         2.29244
O          5.20185        -6.06029         1.39129
O          4.32647         8.98122         0.05683
O          4.85839         6.30209        -2.28446
O         -6.49190         0.48385        -0.67355
O          6.98286         4.75726         1.25066
O          1.41899         6.02436         2.24020
H          0.54343         6.13454         2.68325
H         -1.77990        -5.90017        -2.16751
O         -1.82761        -1.41500         2.85158
O         -6.46891        -3.70800         3.06192
H         -6.73660        -2.79573         3.32860
O         -0.73322         8.12313         1.17299
O          5.51060        -3.75981         2.70442
O          8.47838        -1.07655         2.49682
H          8.76069        -1.86086         3.03719
O         -4.63847        -6.75413        -1.50924
O         -2.98722         7.29853        -2.53441
O         10.22362         2.81127         0.96831
H         10.01968         3.76032         1.10114
O          2.14635         3.76401         2.71013
O         -0.85855         8.70002        -2.44735
H         -1.64541         8.16300        -2.77243
O          4.09117        -3.91211        -1.32955
O         -0.31171         5.14405        -0.89761
H          0.46755         5.32762        -1.48367
O          5.49072         3.35196         2.02373
H          6.26823         2.83839         2.36467
O          1.07338         0.52659         3.52837
H          1.95293         0.61542         3.96349
O          4.55286         5.75478         1.39936
O          3.11969        -4.45536         2.17897
H          3.89222        -4.82602         2.67185
O         -9.58463         5.29422        -1.70398
H         -9.08052         5.32511        -2.54280
O          5.40522         3.31337        -1.61983
H          5.92900         2.78046        -2.25832
O          7.00286         1.28349         2.26805
H          6.88112         0.69102         3.04714
O         -0.11652        10.69120         0.49888
H         -0.14183         9.96377         1.16643
O          3.61506        -9.25045         0.42556
H          3.71529       -10.21751         0.54704
O          0.03633       -10.80484        -2.08917
H          0.19382       -11.15567        -1.18896
O         -1.53636        -4.26931        -1.51506
H         -2.33419        -3.67848        -1.51341
O          2.19044         5.35922        -1.28453
H          2.39270         4.39454        -1.40813
H         12.11364        -1.63516         0.34185
H         12.10615         0.74412        -0.22012
H         10.72303         2.82742        -1.07070
H          9.57020         4.94575        -1.25558
H          8.08546         6.69916        -2.43314
H          6.74410         8.79713        -3.13574
H          4.81803        10.27409        -2.85746
H          2.42606        10.68709        -1.96910
H          0.11415        10.91923        -1.53688
H         -2.51456        11.00049        -0.96373
H         -4.94028        10.89385        -0.75641
H         -7.02939         9.63243        -0.54548
H         -8.27507         7.37860        -0.46920
H         -9.17640         5.13854         0.30835
H        -10.64532         3.07572        -1.40812
H        -12.04668         0.89906        -0.81997
H        -12.11258        -1.47434        -0.18811
H        -10.70674        -3.75998         0.39978
H         -9.26697        -5.69035        -0.61754
H         -8.19873        -8.09403         0.70200
H         -6.92349        -9.88688        -0.56278
H         -4.78722       -10.81898        -1.22783
H         -2.34239       -10.69935        -1.60513
H         -0.13593        -9.01026        -3.07716
H          2.43186       -10.48711        -2.10093
H          4.99070       -10.65226        -1.70353
H          7.10680        -9.48570        -1.65095
H          8.45144        -7.50355        -0.49367
H          8.92280        -5.93948         2.05553
H         11.02281        -3.62173         1.07640
