         404
 CSIRO Nanostructure Databank - Neutral Graphene Oxide Data Set
C          1.14447         2.18135        -0.67254
C          1.13099         3.56222        -0.46109
C          2.33471         1.46522        -0.59638
C          2.31912         4.25826        -0.14977
C          1.13298         6.45994         0.20234
C          1.12226         7.84100         0.43060
C          2.32208         5.70344         0.12145
C          2.30873         8.56130         0.64318
C          1.24470        10.72510         1.28462
C          1.31900        12.08788         1.51929
C          2.38003         9.97873         0.88720
C          2.51011        12.82550         1.29439
C          1.52980        14.94127         2.27348
C          1.63993        16.28036         2.60766
C          2.59230        14.25311         1.62874
C          2.83004        17.00269         2.35420
C          2.98214        18.36938         2.76646
C          3.54931         2.13470        -0.31773
C          3.53228         3.53854        -0.09534
C          4.79145         1.41537        -0.30313
C          4.81402         4.20564         0.34814
C          3.56602         6.36961         0.28863
C          3.55318         7.79523         0.62633
C          4.80932         5.69944         0.14589
C          4.87135         8.59122         0.35590
C          3.60684        10.70115         0.65043
C          3.63804        12.13598         0.78522
C          4.74997        10.02597         0.17431
C          4.84146        12.85569         0.42747
C          3.76436        14.97485         1.33131
C          3.91131        16.34258         1.70198
C          4.82251        14.32648         0.53700
C          5.16270        17.03209         1.54433
C          4.17958        19.01722         2.63685
C          5.32723        18.35014         2.07881
C          6.02231         2.08059        -0.30685
C          6.04488         3.52130        -0.18420
C          7.25596         1.36979        -0.45685
C          7.19567         4.23846        -0.45612
C          6.02243         6.39664        -0.06459
C          6.04182         7.83403        -0.12071
C          7.23885         5.67820        -0.36335
C          7.21042         8.52830        -0.41402
C          5.89268        10.77266        -0.35150
C          5.96895        12.21952        -0.07147
C          7.18060         9.98978        -0.59990
C          7.21930        12.93150        -0.33865
C          6.11905        15.07875         0.29022
C          6.29964        16.37703         0.98189
C          7.30196        14.31140        -0.12019
C          7.57365        16.91066         1.15165
C          6.59347        18.95569         2.08335
C          7.76088        18.23806         1.68595
C          8.44896         2.04217        -0.70403
C          8.39278         3.50174        -0.90812
C          9.71021         1.39098        -0.81818
C          9.71722         4.25475        -0.98983
C          8.46038         6.37826        -0.52086
C          8.46920         7.82934        -0.48503
C          9.70743         5.68904        -0.67336
C          9.67394         8.52414        -0.47129
C          8.44127        10.76066        -0.42981
C          8.40233        12.20860        -0.67818
C          9.73787         9.99596        -0.36657
C          9.65206        12.89576        -1.01154
C          8.53761        15.12692        -0.40941
C          8.75384        16.13729         0.70839
C          9.78741        14.32328        -0.72064
C         10.12059        16.71591         0.86396
C          9.03933        18.80649         1.79203
C         10.32594        18.03694         1.61663
C         10.92195         2.08011        -0.88777
C         10.97154         3.49990        -0.85801
C         12.20272         1.27819        -0.97723
C         12.19020         4.21161        -0.69206
C         10.93802         6.34182        -0.52164
C         10.92353         7.78886        -0.25920
C         12.18040         5.64055        -0.56907
C         12.23114         8.55517        -0.26933
C         11.01476        10.68064        -0.67158
C         11.00241        12.10098        -1.05348
C         12.21433        10.00108        -0.59290
C         12.26794        12.85408        -1.00042
C         11.00696        14.97174        -0.78409
C         11.05574        16.32859        -0.21926
C         12.26424        14.26940        -1.08600
C         11.87477        17.29602        -0.70218
C         11.44524        18.89719         1.06166
C         12.25496        18.49452         0.02045
C         13.46317         2.06680        -0.69332
C         13.43509         3.49305        -0.62215
C         14.66247         1.38327        -0.55823
C         14.65807         4.20805        -0.48222
C         13.42478         6.36395        -0.50180
C         13.46251         7.78546        -0.49840
C         14.65751         5.64188        -0.48672
C         14.67698         8.49713        -0.60951
C         13.47073        10.67804        -0.78970
C         13.48617        12.10644        -0.93270
C         14.68365         9.93939        -0.72620
C         14.73681        12.78659        -1.00143
C         13.53473        14.94496        -1.24264
C         13.65964        16.35372        -1.46998
C         14.75683        14.21200        -1.13890
C         14.81381        17.11548        -1.23942
C         13.54477        19.09012        -0.24058
C         14.72514        18.51797        -0.76704
C         15.89984         2.06714        -0.36836
C         15.88852         3.50044        -0.35874
C         17.12394         1.37443        -0.22708
C         17.11223         4.21308        -0.20929
C         15.88928         6.35060        -0.44519
C         15.90591         7.77425        -0.55221
C         17.11776         5.63556        -0.28056
C         17.14675         8.47370        -0.57585
C         15.93307        10.62370        -0.81921
C         15.95509        12.04426        -0.96953
C         17.15950         9.89273        -0.73940
C         17.20527        12.71959        -1.12376
C         16.00137        14.90763        -1.23542
C         16.04046        16.34368        -1.31173
C         17.22611        14.16110        -1.26909
C         17.26869        16.95248        -1.63002
C         15.90472        19.29987        -0.46039
C         17.19395        19.10399        -0.95278
C         18.34470         2.05227        -0.02397
C         18.33451         3.50374         0.01166
C         19.57608         1.35081         0.08437
C         19.51605         4.22018         0.27109
C         18.34844         6.34533        -0.19501
C         18.37047         7.75920        -0.40949
C         19.54763         5.63908         0.13278
C         19.61914         8.44442        -0.48206
C         18.40504        10.57935        -0.83479
C         18.40595        11.98192        -1.07620
C         19.64454         9.85847        -0.74070
C         19.69491        12.64977        -1.30361
C         18.44959        14.84751        -1.36087
C         18.49619        16.25115        -1.54514
C         19.73632        14.15541        -1.44230
C         19.75008        16.93173        -1.54486
C         18.41190        19.57737        -0.40544
C         19.67877        19.07465        -0.79688
C         20.79041         2.01167         0.35851
C         20.72834         3.46144         0.64788
C         22.03491         1.36368         0.45630
C         22.03221         4.21039         0.83074
C         20.77213         6.37379         0.23111
C         20.81207         7.70858        -0.20179
C         22.00189         5.70636         0.71974
C         22.11469         8.33864        -0.47612
C         20.87818        10.57671        -0.77793
C         20.93283        11.97924        -0.90709
C         22.14502         9.85602        -0.80252
C         22.14336        12.72255        -0.83050
C         20.96906        14.88745        -1.09843
C         20.95393        16.31617        -1.10232
C         22.15567        14.16969        -0.84870
C         22.13723        17.05270        -0.71045
C         20.90755        19.26546        -0.17474
C         22.10329        18.48838        -0.41235
C         23.27393         2.06611         0.56739
C         23.29486         3.48772         0.61436
C         24.52193         1.36069         0.55416
C         24.51442         4.20634         0.39197
C         23.33108         6.42146         0.62187
C         23.33268         7.76876         0.03861
C         24.54840         5.61030         0.39207
C         24.55563         8.52497         0.02409
C         23.39047        10.60227        -0.61358
C         23.37408        12.02085        -0.65886
C         24.59592         9.91870        -0.40472
C         24.60377        12.72586        -0.55691
C         23.36294        14.89515        -0.55549
C         23.32940        16.32688        -0.45450
C         24.58850        14.14831        -0.43342
C         24.53767        17.03340         0.07719
C         23.31652        19.15215        -0.20336
C         24.58594        18.52171        -0.08789
C         25.75170         2.02350         0.49882
C         25.76608         3.46951         0.30801
C         27.00000         1.32509         0.51063
C         26.97758         4.12126         0.13313
C         25.72337         6.28841        -0.15348
C         25.90160         7.74934         0.00535
C         27.02781         5.49948        -0.32914
C         27.10086         8.41627        -0.50858
C         25.84876        10.58453        -0.48250
C         25.84047        12.00942        -0.55458
C         27.08104         9.85400        -0.59132
C         27.07744        12.71130        -0.58781
C         25.83096        14.79733        -0.23330
C         25.81919        16.18285         0.24721
C         27.06323        14.13012        -0.42405
C         27.13472        16.79937         0.38101
C         25.72044        19.33159        -0.21251
C         27.06686        18.93221         0.07969
C         28.23633         1.99173         0.51766
C         28.23887         3.49868         0.65190
C         29.47128         1.32956         0.57826
C         29.49753         4.17553         0.16772
C         28.29278         6.25684        -0.42288
C         28.27570         7.64883        -0.69451
C         29.49781         5.51454        -0.27491
C         29.48472         8.30347        -1.35677
C         28.27789        10.58031        -0.84812
C         28.30217        11.99173        -0.75028
C         29.49818         9.84546        -1.25581
C         29.55521        12.73395        -0.79505
C         28.31560        14.85284        -0.43656
C         28.30328        16.27595        -0.14300
C         29.52303        14.18113        -0.62429
C         29.51656        17.07061        -0.23860
C         28.26033        19.28985        -0.50088
C         29.48779        18.52035        -0.31711
C         30.70449         2.04643         0.61467
C         30.71022         3.47439         0.37217
C         31.92800         1.38824         0.81726
C         31.93930         4.19973         0.43130
C         30.79593         6.18885        -0.48429
C         30.83740         7.66141        -0.94024
C         31.95423         5.57234         0.17074
C         31.99051         8.48419        -0.56995
C         30.79805        10.62082        -1.23909
C         30.76108        12.06806        -0.93544
C         32.13974         9.88071        -1.13883
C         32.04417        12.81618        -1.19565
C         30.76901        14.92991        -0.59076
C         30.73821        16.38551        -0.41767
C         31.96791        14.27062        -0.78436
C         31.96246        17.12559        -0.43729
C         30.69744        19.21739        -0.39191
C         31.94511        18.55196        -0.35497
C         33.16295         2.08974         0.87717
C         33.17669         3.52538         0.75334
C         34.38428         1.42007         1.08565
C         34.37377         4.24409         0.83294
C         33.07756         6.40457         0.57676
C         33.06860         7.88792         0.21560
C         34.38646         5.74547         1.02838
C         34.38962         8.59186         0.38048
C         33.21145        10.71798        -0.45573
C         33.25224        12.08260        -0.62884
C         34.42560        10.05252         0.07159
C         34.49159        12.79364        -0.45530
C         33.23344        15.01835        -0.79312
C         33.21878        16.46500        -0.49229
C         34.51433        14.25141        -0.66559
C         34.40890        17.17964        -0.31566
C         33.17444        19.26410        -0.26935
C         34.38978        18.59648        -0.20304
C         35.60628         2.11647         1.06303
C         35.61189         3.55267         0.90387
C         36.83607         1.42113         1.24912
C         36.83007         4.25964         0.71215
C         35.65026         6.42924         0.50383
C         35.66346         7.82116         0.33811
C         36.86869         5.68132         0.50779
C         36.90029         8.53343         0.18659
C         35.73392        10.70782        -0.12018
C         35.71733        12.12919        -0.28638
C         36.92354         9.98075        -0.01805
C         36.97794        12.84711        -0.34274
C         35.73965        14.97243        -0.21446
C         35.69154        16.45958        -0.11440
C         37.01981        14.25392        -0.39089
C         36.94963        17.20725        -0.26264
C         35.66422        19.37909         0.03620
C         36.94940        18.59407        -0.15168
C         38.05335         2.07051         1.10352
C         38.05028         3.46885         0.64840
C         39.30452         1.42686         1.36164
C         39.41434         4.26416         0.76709
C         38.12078         6.39324         0.44866
C         38.10981         7.80873         0.27201
C         39.34751         5.72215         0.79364
C         39.39265         8.53632         0.22705
C         38.18134        10.69973        -0.11256
C         38.18881        12.09655        -0.31665
C         39.40978        10.00463         0.14900
C         39.45193        12.82793        -0.49217
C         38.24496        14.98896        -0.48633
C         38.18273        16.47410        -0.59838
C         39.45846        14.30455        -0.51643
C         39.49815        17.27056        -0.56026
C         38.16990        19.29798        -0.00528
C         39.41488        18.64328        -0.01897
C         40.47288         2.13876         1.52623
C         40.52072         3.55956         1.40577
C         41.57630         4.32561         1.92617
C         40.50409         6.41521         1.21502
C         40.63302         7.84066         0.83937
C         41.58646         5.71381         1.78860
C         41.64375         8.71801         1.42446
C         40.61224        10.68860         0.38512
C         40.75302        12.07896        -0.07093
C         41.66706        10.04637         1.12259
C         41.88995        12.92996         0.32931
C         40.77687        14.98142        -0.53779
C         40.80847        16.54188        -0.49226
C         41.92006        14.24613         0.04709
C         41.93093        17.25295         0.12155
C         40.56966        19.24143         0.51867
C         41.79232        18.53882         0.59398
O          9.66255        15.63791         1.75128
O         24.92183        16.47518         1.37272
O          5.05231        15.04906        -0.72885
O         32.60048         7.40701         1.55502
O          8.93212         3.93223        -2.19858
O         41.11850        15.79164        -1.70103
O         25.38223         8.27434         1.24068
O         11.58842         8.19906         1.00349
O         30.08174        10.37673        -2.50010
O         35.63564        15.60339         1.11892
O         40.36903        12.24269        -1.46771
O         31.16261         6.55731        -1.86827
O         12.53480        17.05268        -1.91355
O          4.46922         8.15130         1.69978
O         22.62032         6.31815         1.90926
O         34.06946        14.68875        -2.00885
O         38.92378         3.70180        -0.48316
O         17.29422        18.26070        -2.08420
O         19.73665        18.25023        -1.95572
O         40.44279         7.96419        -0.60852
O         19.83117        13.28801        -2.63062
O         38.80266        17.03942        -1.80845
O         22.22606         8.84423        -1.85885
O         26.13163         5.78652        -1.45792
O          6.35136        10.41573        -1.71930
O         21.24913         3.76130         1.99180
O         34.30278         9.56122         1.48247
O          9.08719        10.49102         0.88392
O         10.23506        12.40627        -2.27097
O         27.17584        17.97308         1.12098
O         12.13547         0.11723        -0.13741
H         12.11262         0.41429         0.79514
O          8.23426        15.92957        -1.59103
H          7.92648        15.32694        -2.30072
O         34.47401         5.91680         2.47367
H         33.94968         6.72604         2.69045
O         35.63503        19.91876         1.37336
H         35.55031        19.17032         1.99962
O         32.64909         9.74473        -2.50310
H         32.47977        10.60644        -2.95336
O         28.22449         3.76540         2.10582
H         27.46535         3.27386         2.48691
O          4.87368         4.01680         1.81512
H          4.15923         4.56261         2.20842
O         32.22570        12.77453        -2.65655
H         32.94800        13.42439        -2.85338
O         29.26677         7.99124        -2.74708
H         29.82721         8.60778        -3.27216
O         10.75837        17.69383         2.97453
H         10.33730        16.82702         3.18368
H          0.20498         1.65972        -0.90226
H          0.17655         4.10037        -0.53419
H          2.34206         0.37934        -0.76721
H          0.16571         5.95933         0.06099
H          0.15547         8.36396         0.44371
H          0.29349        10.20493         1.46489
H          0.41860        12.60280         1.87954
H          0.59721        14.41395         2.51430
H          0.80093        16.78948         3.10370
H          2.12266        18.87897         3.22606
H          4.76830         0.32144        -0.41889
H          4.29397        20.05082         2.99459
H          7.24907         0.27123        -0.39418
H          6.70260        19.97731         2.47666
H          9.74092         0.29207        -0.76825
H          9.12339        19.82779         2.19398
H         12.28003         0.88839        -2.03220
H         11.74396        19.75579         1.68227
H         14.65849         0.28394        -0.59833
H         13.68778        20.07061         0.24403
H         17.12196         0.27474        -0.26366
H         15.77556        20.10156         0.28316
H         19.57638         0.25804        -0.04544
H         18.36836        20.22753         0.47969
H         22.06954         0.26908         0.34639
H         21.00329        20.09760         0.53956
H         24.50502         0.26105         0.59337
H         23.28992        20.24775        -0.10376
H         26.98633         0.22414         0.52411
H         25.55761        20.36091        -0.57022
H         29.49547         0.22969         0.62303
H         28.30345        20.15921        -1.17381
H         31.93471         0.29572         0.94970
H         30.68156        20.31617        -0.43692
H         34.38858         0.32908         1.22676
H         33.15118        20.36150        -0.19998
H         36.81278         0.35109         1.50406
H         35.68481        20.26384        -0.65295
H         39.30093         0.34289         1.54751
H         38.12851        20.35532         0.29474
H         41.38286         1.61422         1.85283
H         42.42691         3.81894         2.40388
H         42.46916         6.27181         2.12937
H         42.39370         8.29901         2.10963
H         42.48813        10.66248         1.51419
H         42.76082        12.46656         0.81403
H         42.83337        14.81453         0.27115
H         42.92107        16.77833         0.13231
H         40.50968        20.26793         0.90598
H         42.66654        19.04585         1.02599
