         294
 CSIRO Nanostructure Databank - Neutral Graphene Oxide Data Set
C         30.62420        31.82664        -1.23752
C         30.57322        32.98633        -0.77578
C         30.78962        36.06356         0.45442
C         30.59977        37.32305         0.79244
C         30.11608        40.91043         0.94728
C         30.12027        42.11868         1.21743
C         33.05678        29.50158        -2.92393
C         31.98535        29.93315        -2.44911
C         33.00630        31.85347        -1.51408
C         31.75591        31.15229        -1.76898
C         32.97267        33.15712        -0.76352
C         31.67817        33.83235        -0.31589
C         32.84335        35.95899        -1.00862
C         31.63712        35.31936        -0.26370
C         30.71734        38.52722         1.20174
C         32.44153        40.40672         1.35174
C         31.05044        39.83145         1.04137
C         32.58898        41.94996         1.34042
C         31.34173        42.91170         1.42390
C         32.78353        44.59742         0.57213
C         31.59641        44.20714         0.79699
C         35.82966        27.97280        -2.87484
C         35.70746        29.42967        -2.88032
C         34.36368        30.14648        -2.81159
C         35.48644        31.85054        -1.27333
C         34.24994        31.37880        -1.97849
C         35.38775        33.15261        -0.56088
C         34.22357        34.00995        -0.99193
C         35.17153        36.03699         0.26012
C         34.14381        35.42297        -0.41691
C         35.17040        37.46044         0.70617
C         33.88282        38.22241         0.57768
C         35.05855        40.33677         1.35480
C         33.73710        39.60210         1.19678
C         35.09767        41.69171         0.71046
C         33.82067        42.48349         0.63544
C         35.14264        44.31035        -0.58303
C         33.95249        43.92125         0.23537
C         35.39088        45.79610        -0.77959
C         38.21317        27.62735        -2.47405
C         36.75458        27.30534        -2.37823
C         38.18021        29.19499        -2.02596
C         36.98017        30.05012        -2.28079
C         37.98774        31.84202        -0.68987
C         36.89436        31.47291        -1.71595
C         37.88287        33.15355        -0.08473
C         36.56552        33.80841         0.06313
C         37.63994        35.86553         1.11678
C         36.38983        35.20493         0.60029
C         37.58969        37.33774         1.46516
C         36.30870        38.08306         1.20986
C         37.67883        40.33408         1.62121
C         36.32843        39.55300         1.52738
C         37.67738        41.68575         0.88042
C         36.42443        42.34771         0.42228
C         37.82049        44.28416        -0.48495
C         36.46040        43.86098         0.21116
C         37.86700        45.79743        -0.91078
C         36.49441        46.24650        -1.11022
C         39.93988        24.94515        -0.32444
C         39.05807        25.58116        -0.92285
C         40.49909        27.51754        -1.18347
C         39.25399        26.82284        -1.70008
C         40.54651        29.06071        -1.34382
C         39.13966        29.58475        -0.89977
C         40.21476        31.42522         0.50762
C         39.10657        31.05226        -0.48849
C         40.08486        32.88637         1.10299
C         39.00336        33.78388         0.51171
C         40.16427        35.79174         1.36462
C         38.90879        35.09911         1.02008
C         40.17259        37.30378         1.50701
C         38.89164        38.12877         1.77188
C         40.21784        40.30369         1.32067
C         38.88423        39.50705         1.07767
C         40.18164        41.74679         0.69283
C         38.93020        42.55450         1.14354
C         40.08882        44.81881         0.86548
C         38.96612        43.89750         0.41864
C         40.20538        46.20517         0.17205
C         39.05016        46.66698        -0.70031
C         40.19142        48.78398        -1.04897
C         39.15040        48.12910        -0.89445
C         42.47309        24.72273         0.48774
C         41.19391        25.41150         0.25840
C         42.89371        27.32704        -0.47987
C         41.45678        26.84602        -0.21289
C         42.98533        28.86632        -0.32693
C         41.77510        29.70429        -0.66645
C         42.81977        31.57843         0.74396
C         41.62294        31.06515        -0.00431
C         42.71665        32.78121         1.66219
C         41.44063        33.60328         1.44120
C         42.69585        35.86006         1.21765
C         41.43969        35.06976         0.91321
C         42.66741        37.36291         1.60498
C         41.42283        37.95811         0.88253
C         42.71186        40.28020         0.68969
C         41.42658        39.51141         0.79092
C         42.76831        41.77638         0.88067
C         41.46540        42.54683         1.01058
C         42.65734        44.71287         0.17979
C         41.46922        44.05131         0.92855
C         42.82496        46.28006         0.48576
C         41.48198        46.99623         0.15825
C         42.78370        48.84458        -1.13193
C         41.51044        48.82562        -0.41163
C         43.60611        25.21386         0.44819
C         45.37504        27.21537         0.11701
C         44.00093        26.65849         0.50856
C         45.36224        28.70608         0.59766
C         44.11412        29.47498         0.43829
C         45.34680        31.54263         1.01402
C         44.10685        30.81391         0.76581
C         45.26183        32.87545         1.54742
C         44.04937        33.30757         2.09985
C         45.13419        35.99205         1.34223
C         43.88883        35.32493         0.80042
C         45.08931        37.30332         0.52500
C         43.98113        38.10911         1.18466
C         45.27200        40.16905         0.25544
C         44.01546        39.55643         0.84159
C         45.27879        41.65751         0.09597
C         44.05557        42.47765         0.52465
C         45.10680        44.51863        -0.65053
C         44.09633        44.02130         0.39716
C         45.09543        46.01108        -0.90370
C         44.02392        46.84026        -0.34310
C         43.76998        48.13143        -0.79032
C         47.77100        27.34182         0.65862
C         46.69005        26.74458         0.69365
C         47.93414        28.76935         0.18587
C         46.66592        29.48076         0.71767
C         47.84303        31.71158         0.97033
C         46.61009        30.95357         0.79815
C         47.79281        33.04799         1.27877
C         46.50089        33.69980         1.61212
C         47.69666        35.96896         1.00044
C         46.44360        35.20301         1.39271
C         47.48149        36.97678        -0.12553
C         46.45034        38.00705         0.40863
C         47.56801        39.93146        -0.79599
C         46.29627        39.29782        -0.38725
C         47.62523        41.42870        -0.95880
C         46.34333        42.22984        -0.79215
C         47.77705        44.37139        -1.04841
C         46.36383        43.71038        -0.98464
C         47.44909        45.76123        -1.55520
C         46.45172        46.42996        -1.26035
C         50.50440        28.97393         0.80150
C         49.20770        29.55262         0.43626
C         50.42318        31.71443         1.32313
C         49.17941        31.05600         0.79960
C         50.33888        33.15884         1.74732
C         49.01809        33.84638         1.60717
C         50.23998        35.94217         0.59825
C         49.01170        35.31536         1.23149
C         50.05565        36.87754        -0.61729
C         48.73094        37.61909        -0.77642
C         49.93052        39.68431        -1.87660
C         48.66710        39.02951        -1.34412
C         49.95803        41.19746        -1.99393
C         48.59500        42.01157        -1.97823
C         50.06972        43.87429        -2.12829
C         48.78291        43.53463        -1.79688
C         51.52864        29.66407         0.96893
C         52.78624        31.92040         1.51715
C         51.65204        31.04870         1.30773
C         52.76272        33.15473         1.56657
C         51.70793        34.14362         1.88536
C         52.59377        35.83066        -0.00893
C         51.59890        35.37796         0.98599
C         52.49040        36.87437        -0.67444
C         51.28915        37.44159        -1.30392
C         52.31907        39.74739        -1.85836
C         51.26784        38.72740        -2.10953
C         52.37429        40.97166        -2.00850
C         51.31424        41.97221        -1.68415
C         51.17755        43.29713        -2.44615
O         38.87381        45.95338        -1.94983
O         40.50152        26.79481        -2.44926
O         38.12534        30.01887        -3.20547
O         48.34394        37.88451        -2.17467
O         32.92643        37.78500        -0.05613
O         51.05539        36.53493         1.66925
O         49.53791        33.44027         2.91918
O         45.97122        42.81626        -2.06596
O         48.47081        36.30174         2.17284
O         35.14998        31.89820         0.14916
O         42.89233        29.60311        -1.59790
O         49.86537        40.36908        -3.16485
O         42.43370        32.08314        -0.62413
O         32.52454        33.13523         0.62401
O         45.89293        41.07158         1.27505
O         41.96222        39.92020        -0.52336
O         46.63253        34.62468         2.73139
O         46.02576        28.87772         1.88198
O         35.20022        30.14605        -3.99932
O         34.40696        34.17037        -2.41863
O         49.37040        30.56843        -0.58607
O         33.02390        39.70331         2.47402
O         41.57549        43.39403         2.20257
O         37.23600        41.55364        -0.49167
O         40.36332        36.42782         2.65437
O         41.78539        33.08449         2.75636
O         41.04577        26.56457         1.15157
O         43.72019        42.13432         1.90510
O         35.54301        40.04378         2.68436
O         48.21304        40.86713         0.22077
O         37.39301        36.33343         2.50379
O         39.39856        32.75927         2.32871
O         50.50970        36.35290        -1.89939
O         36.14273        34.06271         1.46948
O         44.56658        45.04344        -1.90230
O         32.14355        42.60445         2.56579
O         34.22721        41.59488        -0.47318
O         40.57504        47.16627         1.24036
O         44.33945        39.08122         2.19342
O         43.07606        46.49885         1.86044
H         42.20915        46.59828         2.31732
O         43.72633        27.11306         1.81598
H         42.84415        26.77289         2.09516
O         39.76993        45.20643         2.22122
H         39.61550        44.37432         2.74134
O         38.88933        38.36505         3.18871
H         39.04244        37.48925         3.61960
O         51.78862        34.55821         3.21447
H         51.33110        35.42396         3.30640
O         35.14317        43.66234        -1.82857
H         34.25050        43.69936        -2.22642
O         46.91311        36.13277        -1.16280
H         47.15871        36.53611        -2.03190
O         42.48693        37.61605         2.99184
H         43.33538        37.38597         3.43637
O         44.55803        37.09042        -0.80218
H         45.19235        36.50030        -1.28220
O         43.08053        26.96442        -1.83695
H         44.00917        27.16169        -2.10568
O         40.06175        30.52614         1.64353
H         39.61978        31.10754         2.34070
O         42.18153        44.54775        -1.15947
H         42.88167        44.82236        -1.80761
O         40.04815        41.66014        -0.73136
H         40.80397        41.13557        -1.09428
O         37.13541        32.36517        -2.83145
H         37.79741        31.92573        -3.41596
O         46.94170        38.38484         1.69656
H         46.27182        38.96146         2.13955
O         36.39105        44.44269         1.51215
H         36.25364        45.41093         1.42864
O         44.02216        34.08882         3.18159
H         43.07324        34.15725         3.46822
O         41.55413        49.53609         0.75033
H         40.75491        49.33675         1.28399
O         44.64061        44.49951         1.62587
H         44.27016        43.95443         2.35884
O         39.00604        42.77606         2.56013
H         39.50617        42.02204         2.97235
O         37.89565        43.55879        -1.71630
H         38.60963        43.96154        -2.25811
O         47.97819        41.82454        -3.25460
H         48.63231        42.02393        -3.95717
O         51.33595        42.23817        -0.30303
H         52.22298        42.56485        -0.04801
O         40.64820        29.35774        -2.73654
H         41.59683        29.26279        -2.98560
O         40.45445        40.48719         2.72300
H         40.01941        39.74437         3.22415
O         48.21477        44.46875         0.30314
H         49.16076        44.72426         0.32153
O         43.99945        34.41506        -0.19551
H         43.09967        34.25135        -0.58964
O         37.91733        40.58741         3.00358
H         37.04892        40.64812         3.46588
O         51.28070        38.36761        -3.46820
H         50.74945        37.54952        -3.57886
O         38.54467        27.58702        -3.83598
H         39.51870        27.45559        -3.91074
O         45.55266        27.15961        -1.28886
H         46.42192        27.59070        -1.50976
O         32.79396        36.31517        -2.17729
H         33.89141        34.95535        -2.73350
O         44.88405        36.41460         2.70270
H         45.44664        35.85096         3.29059
O         41.34888        34.82998        -0.52628
H         41.37133        35.72544        -0.95164
O         38.72281        39.25346        -0.31659
H         38.75516        40.11440        -0.80444
O         41.41639        37.49118        -0.48832
H         41.97095        38.10873        -1.02215
O         47.76559        28.71158        -1.24468
H         48.64833        28.66676        -1.67115
O         38.69309        28.80416         0.22786
H         39.07030        29.22400         1.04973
