         277
 CSIRO Nanostructure Databank - Neutral Graphene Oxide Data Set
C         31.44879        32.10376         3.38718
C         31.55945        33.35264         3.22104
C         31.64441        36.52630         2.98921
C         31.62896        37.75041         2.87415
C         32.33453        40.89336         3.16741
C         32.40202        42.14076         3.20233
C         33.04834        29.11971         1.93196
C         32.22379        29.75829         2.61678
C         33.20465        31.83502         1.79284
C         32.22344        31.20386         2.63427
C         33.26838        33.25001         1.61804
C         32.35654        34.08780         2.35133
C         33.15393        36.18061         1.11664
C         32.21521        35.51764         2.08271
C         33.45085        37.67646         1.28344
C         32.16619        38.56562         1.72084
C         33.01184        40.76412         0.99061
C         32.50424        40.02101         2.01424
C         33.37476        42.22108         0.97583
C         33.42270        42.92422         2.40814
C         33.80032        44.77758         0.92715
C         33.32639        44.39191         2.00650
C         35.69660        27.47474         1.49385
C         35.44174        28.86521         1.25901
C         34.26310        29.53510         1.32024
C         35.36597        31.66018         0.42741
C         34.04613        30.99341         0.84029
C         35.40123        33.14142         0.31022
C         34.28073        33.86690         0.74792
C         35.30934        35.95003        -0.37517
C         34.17800        35.31770         0.40315
C         35.49041        37.43122        -0.25264
C         34.30694        38.19785         0.13219
C         35.41321        40.31556        -0.56705
C         34.23835        39.48765        -0.31769
C         35.26432        41.75059        -0.91620
C         34.62421        42.61900         0.12146
C         35.05715        44.56267        -1.46258
C         34.69867        44.13299        -0.05201
C         35.37705        46.01152        -1.60811
C         38.03112        27.30091         0.88046
C         36.78734        26.87080         1.42951
C         37.86765        28.74043         0.34885
C         36.79300        29.58150         1.08690
C         37.93636        31.66267         0.12557
C         36.66796        30.91917         0.38238
C         37.84547        33.04835        -0.27601
C         36.60492        33.74469        -0.21476
C         37.72319        35.82579        -1.29819
C         36.43155        35.05496        -0.96893
C         37.77901        37.32632        -1.24563
C         36.61756        38.07598        -0.69884
C         37.88363        40.24085        -1.27496
C         36.70886        39.55668        -0.67268
C         37.78655        41.69531        -1.51370
C         36.45253        42.35517        -1.58921
C         37.72036        44.58198        -1.91567
C         36.42230        43.84454        -1.86477
C         37.73118        46.05635        -2.15653
C         36.41560        46.62192        -1.84123
C         40.32419        24.43500         0.42709
C         39.40253        25.18685         0.76726
C         40.39716        27.23066         0.12105
C         39.17917        26.59609         0.65693
C         40.44249        28.71529         0.20803
C         39.17784        29.50537         0.40343
C         40.35491        31.60239        -0.35218
C         39.13419        30.95525         0.04554
C         40.29074        33.00328        -0.72579
C         39.06645        33.69578        -0.70371
C         40.25905        35.79075        -1.69280
C         38.96512        34.95804        -1.54472
C         40.26420        37.30060        -1.80634
C         39.11699        38.05972        -1.14182
C         40.25703        40.26954        -2.01546
C         39.01998        39.52777        -1.52192
C         40.23907        41.67879        -1.39664
C         38.94146        42.44220        -1.62548
C         40.16511        44.67400        -1.58924
C         38.92428        43.90492        -1.74467
C         40.24779        46.04944        -1.68426
C         39.02747        46.83689        -2.03308
C         39.95932        48.63330        -0.82375
C         39.01279        48.25008        -1.60454
C         42.78751        24.35617        -0.33727
C         41.38609        24.92580        -0.53297
C         42.72835        27.22059        -0.64443
C         41.48393        26.50916        -0.32282
C         42.71893        28.67366        -0.72522
C         41.60948        29.41904        -0.35434
C         42.79201        31.55835        -0.77494
C         41.55493        30.85622        -0.49720
C         42.73436        33.00014        -0.91164
C         41.53831        33.69250        -1.05541
C         42.73368        35.86054        -1.33304
C         41.56133        35.12358        -1.39125
C         42.78623        37.31819        -1.42796
C         41.59436        38.06453        -1.96116
C         42.71003        40.22098        -1.43974
C         41.55206        39.54669        -1.64366
C         42.83442        41.72846        -1.57898
C         41.49030        42.44520        -1.76073
C         42.57896        44.54080        -0.80170
C         41.44940        43.91676        -1.55580
C         42.61418        46.03321        -0.71132
C         41.56453        46.76104        -1.51398
C         42.41298        48.52080         0.16347
C         41.21864        48.33673        -0.46286
C         43.71912        25.11427        -0.66952
C         45.22509        27.15846        -1.19582
C         43.93127        26.50659        -0.81216
C         45.18226        28.63953        -0.58801
C         43.96595        29.37778        -1.22532
C         45.30938        31.55600        -1.18810
C         43.98321        30.86279        -0.92902
C         45.30021        33.02379        -0.79326
C         44.00433        33.73978        -0.81557
C         45.15341        35.92174        -0.47314
C         44.08162        35.16854        -1.29467
C         45.29010        37.35831        -1.04423
C         43.92957        38.01221        -1.14828
C         44.73959        40.03794         0.05002
C         44.03861        39.50506        -1.24228
C         44.87607        41.54793        -0.03465
C         43.72678        42.36066        -0.51449
C         44.71919        44.41583         0.47952
C         43.74020        43.72407        -0.35409
C         44.77565        45.80582         0.53096
C         43.93520        46.71780        -0.32736
C         43.56489        48.03423         0.37272
C         47.55989        27.24622        -0.28524
C         46.50152        26.65810        -0.54688
C         47.67102        28.68475         0.13169
C         46.54939        29.35996        -0.74812
C         47.84414        31.57704        -0.67810
C         46.46979        30.85921        -0.40302
C         47.76668        33.07328        -0.26061
C         46.60861        33.80329        -1.02986
C         47.61306        35.91343         0.14951
C         46.47346        35.21948        -0.51746
C         47.69052        37.48200        -0.19562
C         46.31637        38.11531        -0.21488
C         47.10668        40.04820         1.10843
C         46.09036        39.36109         0.29056
C         46.86800        41.32071         1.59920
C         45.85145        42.17427         0.90966
C         46.45887        44.17742         2.45761
C         45.55821        43.56347         1.38014
C         46.51963        45.62797         2.25257
C         45.68519        46.22978         1.54877
C         50.19772        28.90187         0.49307
C         48.97255        29.43980         0.05064
C         50.22982        31.59709         0.30816
C         49.03694        30.84868        -0.03745
C         50.23162        33.03683         0.28381
C         49.11885        33.77958        -0.46250
C         50.11270        36.04116         0.53396
C         48.98378        35.27816        -0.11301
C         49.82050        37.38395         1.14613
C         48.64351        38.08842         0.82088
C         49.32036        39.93922         2.28620
C         48.36995        39.35467         1.40655
C         49.09864        41.28337         2.94138
C         47.98730        42.12448         2.22969
C         48.82262        44.00754         3.46791
C         47.50581        43.32760         3.15739
C         51.28183        29.47371         0.78037
C         52.45947        31.72357         1.23873
C         51.41402        30.87514         0.80171
C         52.36938        32.97189         1.25549
C         51.31572        33.80917         0.80178
C         52.06813        35.98292         1.85126
C         51.26843        35.21509         0.99825
C         51.85873        37.12342         2.34047
C         50.71576        37.94452         2.11187
C         52.58132        41.62349         1.62658
C         50.42801        39.18532         2.72918
C         51.53276        41.93928         2.25926
C         50.37038        42.21348         2.90215
C         49.92482        43.42376         3.52090
O         49.90691        36.03569        -0.92897
O         34.05464        35.60304        -1.03844
O         33.02228        40.18143        -0.28887
O         36.20934        42.91960        -2.96209
O         38.43721        46.51559        -3.31206
O         41.83483        38.18204        -3.47150
O         44.68162        33.40380         0.47835
O         36.35332        40.12986         0.63627
O         45.13572        43.67990         2.78774
O         41.57709        43.33207        -2.89934
O         46.12792        42.09748        -0.54484
O         37.48694        36.66099        -2.49967
O         35.81815        30.96005        -0.80154
O         42.01666        45.27252         0.36502
O         35.71193        43.46172         0.72328
O         40.08794        36.49400        -2.98544
O         40.01943        29.20771         1.54823
O         31.80743        35.82433         0.71065
O         44.56953        35.09804        -2.63931
O         46.86500        33.81984        -2.45370
H         46.06849        34.32463        -2.82872
O         48.61108        42.79070         1.10636
H         48.69622        42.16502         0.35554
O         34.02827        44.11596        -2.31045
H         34.39981        43.96907        -3.20798
O         34.37831        37.71981         2.39449
H         34.69197        38.64187         2.51602
O         48.23460        37.70799        -1.49765
H         47.51460        37.54902        -2.16024
O         34.67738        42.72278         2.98511
H         34.75967        43.26257         3.79674
O         51.21562        39.57557         3.74123
H         50.84396        40.36348         4.19109
O         39.48745        38.03759         0.27421
H         39.03702        38.78164         0.72996
O         44.60186        47.04597        -1.55055
H         45.46750        47.45900        -1.34400
O         43.55856        41.99034        -2.80121
H         44.28617        41.32375        -2.88697
O         44.75057        36.08898         0.91756
H         44.58443        35.17145         1.25248
O         48.09562        31.51040        -2.09705
H         48.71212        32.24873        -2.34568
O         47.42415        35.88139         1.59518
H         46.45802        36.00271         1.76279
O         43.88081        39.78920         1.18249
H         43.76100        38.81973         1.27530
O         46.94591        42.83347         4.36325
H         45.98073        43.03657         4.36899
O         42.51860        37.00544        -3.94792
H         41.78256        36.33921        -4.00209
O         49.50567        33.71069        -1.85231
H         49.94427        34.56584        -2.08265
O         42.03269        47.29947        -2.67752
H         42.99785        47.48859        -2.60228
O         46.10215        31.01599         0.97465
H         46.44538        30.25629         1.50548
O         33.25316        30.89697        -0.36113
H         33.86721        30.72376        -1.10992
O         47.52771        33.18044         1.14216
H         46.73788        32.62542         1.37044
O         31.23658        38.50255         0.66516
H         30.42333        38.98650         0.91351
O         44.83190        28.52808         0.79166
H         45.54825        28.05565         1.27317
O         32.24261        42.79031         0.27442
H         32.08677        42.26113        -0.53737
O         38.75489        34.37155        -2.86345
H         37.78828        34.18650        -2.95174
O         35.97117        34.58523        -2.26811
H         35.79083        35.38156        -2.81641
O         45.53248        31.48840        -2.61082
H         46.21165        32.17695        -2.84890
O         44.93243        39.81719        -2.33967
H         45.21310        38.96869        -2.77081
O         37.27096        29.88326         2.40957
H         37.50982        29.04274         2.85566
O         37.51418        28.63761        -1.03841
H         36.62520        28.23080        -1.11023
O         40.98003        24.70740        -1.84781
H         40.94711        23.74619        -2.02887
O         43.97595        29.26788        -2.66022
H         44.62482        29.92473        -3.01277
O         40.34471        41.46457         0.04282
H         40.10202        42.29124         0.51094
O         46.92461        29.17862        -2.11866
H         47.50965        29.92193        -2.41135
O         45.34399        27.10517        -2.58828
H         46.09042        27.69160        -2.85527
O         45.78075        37.28897        -2.40177
H         45.28359        36.49309        -2.82375
O         40.19745        40.40183        -3.44206
H         40.59070        39.59941        -3.85735
O         48.83230        40.99648         4.31930
H         48.23152        41.67922         4.70756
O         47.33559        28.73466         1.54315
H         48.07996        28.33307         2.04197
