         210
 CSIRO Nanostructure Databank - Neutral Graphene Oxide Data Set
C         30.36684        31.65297        -0.22517
C         30.43792        32.89893        -0.31458
C         30.40592        36.00680        -0.69033
C         30.55130        37.27867        -0.48410
C         30.53928        40.32582         0.45463
C         30.57149        41.56688         0.45069
C         32.76228        28.87048         0.25293
C         31.64977        29.42779         0.08921
C         32.77236        31.55057        -0.08243
C         31.51757        30.82613        -0.08441
C         32.79141        33.00922        -0.18117
C         31.54422        33.77745        -0.29538
C         32.79839        35.93378        -0.29134
C         31.52225        35.16906        -0.45161
C         32.86428        37.37721        -0.78212
C         31.58763        38.13873        -0.32691
C         32.93291        40.21683        -0.05824
C         31.73424        39.39687         0.47172
C         32.86832        41.71358        -0.18956
C         31.63340        42.48692         0.24955
C         33.02794        44.35308         0.46576
C         31.85233        43.82993         0.48124
C         35.41370        27.37049         0.82403
C         35.28115        28.74668         0.51982
C         34.05787        29.42307         0.28910
C         35.28881        31.51540         0.01475
C         34.02297        30.84304         0.08344
C         35.27436        32.93953        -0.36017
C         34.01482        33.69046        -0.24121
C         35.37011        35.89937        -0.32305
C         34.08203        35.16238        -0.15980
C         35.33740        37.36864        -0.34736
C         34.14240        38.07768        -0.37946
C         35.37508        40.26663        -0.73829
C         34.08960        39.53268        -0.34013
C         35.42351        41.64916         0.00376
C         34.18399        42.46976        -0.26424
C         35.58215        44.53436         0.15244
C         34.29791        43.91557         0.16236
C         35.87770        45.69907         0.81746
C         37.77566        27.41026         1.23598
C         36.50224        26.83344         1.14665
C         37.76270        28.77778         0.87309
C         36.53487        29.44756         0.53235
C         37.77059        31.59923         0.30590
C         36.51713        30.85442         0.23410
C         37.77840        32.98548         0.15345
C         36.59289        33.71887        -0.31038
C         37.87984        35.90652        -0.40197
C         36.55065        35.20743        -0.25858
C         37.82900        37.39121        -0.15767
C         36.61255        38.08897        -0.27011
C         37.84532        40.20762        -0.19828
C         36.63062        39.50589        -0.31112
C         37.87542        41.66512        -0.29410
C         36.69344        42.36849        -0.33145
C         37.95589        44.49069        -0.78751
C         36.60893        43.80846        -0.74001
C         38.00007        45.88534        -1.12769
C         36.22130        46.70040         1.50229
C         40.10665        24.64008         1.10377
C         39.08968        25.26891         1.42908
C         40.28825        27.36520         1.17606
C         39.00030        26.73532         1.75655
C         40.26401        28.80699         0.98177
C         39.02859        29.50487         0.85392
C         40.25227        31.62900         0.61578
C         39.01272        30.90576         0.61005
C         40.26315        33.04846         0.60697
C         38.97210        33.75335         0.56086
C         40.28879        35.94950         0.38979
C         38.98989        35.25188         0.39462
C         40.29410        37.36517         0.22644
C         39.05810        38.07996        -0.00530
C         40.31480        40.21661        -0.00596
C         39.07201        39.50340        -0.04335
C         40.33412        41.63275        -0.21382
C         39.14745        42.35609        -0.35852
C         40.39822        44.51691        -0.39071
C         39.14189        43.79824        -0.53312
C         40.41609        45.97478        -0.49955
C         39.17498        46.60995        -0.93299
C         40.37905        48.76117        -0.94857
C         39.41354        48.00126        -1.14625
C         42.48697        24.58520         0.08390
C         41.38331        25.14680         0.70603
C         42.77608        27.31686         0.87497
C         41.42378        26.62562         0.89510
C         42.73432        28.80714         0.66143
C         41.50001        29.50452         0.76082
C         42.73400        31.64231         0.56004
C         41.49991        30.92683         0.64289
C         42.72949        33.07238         0.55414
C         41.47683        33.77054         0.59548
C         42.72857        35.90457         0.65717
C         41.48566        35.21308         0.55951
C         42.68314        37.35434         0.91267
C         41.48619        38.10035         0.45665
C         42.75391        40.23464         0.49270
C         41.51684        39.50125         0.27419
C         42.81640        41.64098         0.28549
C         41.66476        42.31694        -0.44109
C         42.75521        44.51916         0.27148
C         41.57377        43.80629        -0.19671
C         42.75386        46.04976         0.27019
C         41.60347        46.70604        -0.36359
C         42.87187        48.80511        -0.14844
C         41.76583        48.16179        -0.96452
C         43.47288        25.36083        -0.24225
C         45.02313        27.38783        -0.30956
C         43.82154        26.66045        -0.07689
C         45.13698        28.74583         0.08697
C         43.94994        29.49184         0.44191
C         45.18393        31.67662         0.30110
C         43.97713        30.93679         0.45935
C         45.18554        33.09319         0.29436
C         43.95464        33.79733         0.47824
C         45.21316        35.96029         0.64052
C         43.95802        35.22744         0.61128
C         45.25721        37.33570         0.96883
C         43.97539        38.08892         1.21297
C         44.93904        40.38143         1.46948
C         43.88406        39.57547         1.03002
C         45.15572        41.71144         1.06387
C         44.00952        42.34707         0.51737
C         45.31047        44.55390         0.63419
C         44.06804        43.80459         0.26531
C         45.21201        46.06146         0.79007
C         44.07893        46.74896         0.45866
C         43.84337        48.14207         0.24872
C         47.29595        27.50859        -0.98904
C         46.21993        26.87295        -0.89455
C         47.61087        28.83329        -0.63310
C         46.44135        29.44058         0.05310
C         47.65076        31.72194        -0.32271
C         46.48118        30.98428         0.19141
C         47.61061        33.14952        -0.28087
C         46.41126        33.83456         0.10514
C         47.63784        35.97513         0.06787
C         46.42220        35.25229         0.28049
C         47.68509        37.37484         0.35208
C         46.53284        38.00216         0.91221
C         47.77955        40.17293         1.04522
C         46.73565        39.31455         1.41612
C         47.70576        41.62061         1.21576
C         46.46655        42.35899         1.19072
C         47.71798        44.46203         1.39158
C         46.50310        43.78413         1.11674
C         47.55126        45.89450         1.41204
C         46.51078        46.52574         1.16557
C         49.96914        29.07836        -1.43978
C         48.76050        29.57636        -0.89438
C         49.99266        31.76337        -1.15592
C         48.81023        31.02803        -0.75977
C         49.98175        33.19547        -1.01658
C         48.80420        33.88950        -0.57516
C         50.01525        36.06769        -0.61003
C         48.81794        35.30542        -0.38949
C         50.06134        37.47416        -0.30549
C         48.89419        38.13534         0.19865
C         50.15973        40.28327         0.42614
C         48.94236        39.53316         0.50958
C         50.19772        41.65701         0.87015
C         48.95425        42.32829         1.19317
C         50.23914        44.27291         1.53894
C         48.92884        43.74722         1.45483
C         51.02160        29.66922        -1.76320
C         52.25761        31.93188        -1.96483
C         51.17430        31.07801        -1.66290
C         52.20030        33.17458        -1.79175
C         51.14682        33.98249        -1.32435
C         52.27925        36.24468        -1.27449
C         51.16954        35.37829        -1.10686
C         52.32234        37.45804        -0.97572
C         51.26421        38.24383        -0.45476
C         52.45911        40.44354        -0.00778
C         51.32672        39.60052        -0.05255
C         52.55588        41.62196         0.41192
C         51.45934        42.38240         0.88175
C         51.34377        43.73344         1.30108
O         33.43504        42.20572        -1.46459
O         33.35364        35.70802         1.02913
O         44.99795        44.20261        -0.78527
O         45.83476        39.79598         2.36896
O         43.12526        37.63279         2.30666
O         46.78933        30.09201         1.31217
O         36.04408        33.22079        -1.58579
O         38.65547        34.68001         1.68975
O         35.42740        40.42813        -2.10102
O         42.46233        45.28149         1.49209
O         32.87290        37.30932        -2.22102
H         33.08876        38.19725        -2.57905
O         42.20725        48.02956        -2.29090
H         42.26554        48.91608        -2.70222
O         32.03159        39.04717         1.82201
H         31.38441        38.38135         2.13524
O         43.32982        27.11485         2.20803
H         43.42307        26.14985         2.35871
O         35.39725        41.38633         1.42602
H         36.26851        41.03080         1.70206
O         38.29510        35.72778        -1.79407
H         37.61699        36.13654        -2.37301
O         41.97064        42.13541        -1.86718
H         41.23858        42.53202        -2.38564
O         39.03623        26.92356         3.17057
H         39.82227        26.46279         3.53071
O         36.03168        43.85505        -2.08703
H         35.67771        42.96589        -2.32342
O         36.92981        46.50610        -1.65211
H         36.19661        45.87057        -1.79587
