         732
 CSIRO Nanostructure Databank - Neutral Graphene Oxide Data Set
C         23.14971        24.66699         1.62574
C         22.01723        25.39970         1.97450
C         23.03627        27.44808         1.16560
C         21.94852        26.77655         1.74574
C         22.99510        28.89489         0.85371
C         21.73511        29.61990         0.86182
C         22.89161        31.77199         0.67000
C         21.68898        30.98362         0.78236
C         22.94093        33.14199         0.88176
C         21.76243        33.93829         1.06741
C         23.04725        36.04112         1.21013
C         21.81479        35.29720         1.23038
C         23.07638        37.42863         1.43776
C         21.92520        38.20162         1.73030
C         23.23127        40.28724         1.86856
C         22.00593        39.55522         1.98824
C         23.27924        41.71563         2.10156
C         22.20641        42.35235         2.74990
C         23.42812        44.42749         2.70010
C         22.31287        43.69110         3.10222
C         23.29392        46.59673         2.07206
C         22.05031        47.13599         1.82787
C         22.99503        48.57522         0.13285
C         21.89471        48.02873         0.70373
C         25.59337        23.15883         0.95666
C         25.49230        24.55949         0.68006
C         24.26663        25.30173         1.04196
C         25.31977        27.40968         0.20240
C         24.19081        26.69696         0.83701
C         25.46615        28.85716         0.61946
C         24.14739        29.58233         0.56103
C         25.40970        31.77445         0.29948
C         24.09940        31.03443         0.13857
C         25.46390        33.11741         0.55741
C         24.27262        33.81367         1.17145
C         25.48089        35.98505         0.80830
C         24.28432        35.31616         0.98804
C         25.45884        37.49165         0.65318
C         24.42744        38.09920         1.59148
C         25.60295        40.31280         1.24083
C         24.40118        39.60777         1.49570
C         25.62058        41.74543         1.33640
C         24.46104        42.45634         1.76789
C         25.62029        44.65895         1.42178
C         24.50058        43.88891         1.93690
C         25.59140        46.09934         1.12741
C         24.45474        46.92459         1.29699
C         25.51898        48.82505        -0.00162
C         24.34536        48.34704         0.79247
C         25.47272        50.10033        -0.57101
C         27.91304        23.03395         0.18178
C         26.77256        22.44948         0.74843
C         27.79458        24.41976        -0.38730
C         26.59665        25.20048         0.12138
C         27.81575        27.38845        -0.43864
C         26.53844        26.63781        -0.19578
C         27.80310        28.86302        -0.22837
C         26.64462        29.55588        -0.01721
C         27.93580        31.78183        -0.12013
C         26.62045        31.03631        -0.12285
C         27.93584        33.19507         0.29458
C         26.71403        33.86477         0.50279
C         27.96697        35.99047         0.66240
C         26.72974        35.27987         0.66973
C         27.98783        37.43790         0.74194
C         26.80150        38.16852         0.82479
C         28.04190        40.30204         0.81398
C         26.81721        39.59197         0.95416
C         28.03451        41.74866         0.83383
C         26.82648        42.46958         1.10686
C         28.01855        44.59106         0.79178
C         26.80012        43.90958         1.09064
C         27.98422        46.00741         0.47624
C         26.75102        46.71248         0.50299
C         27.86665        48.68754        -0.59706
C         26.71775        48.07532        -0.01371
C         27.85182        50.02732        -1.07382
C         26.61500        50.70050        -1.09340
C         30.49252        20.30905         0.33020
C         29.27203        20.96407         0.38654
C         30.36747        23.04234        -0.28539
C         29.17346        22.34258         0.08340
C         30.30815        24.48173        -0.47291
C         29.12122        25.15890        -0.36051
C         30.40206        27.33426        -0.40682
C         29.10418        26.63070        -0.54661
C         30.40077        28.76521        -0.05128
C         29.11057        29.54290        -0.05965
C         30.39370        31.64666         0.12406
C         29.19400        31.01194        -0.05001
C         30.40620        33.07540         0.51975
C         29.16132        33.86482         0.48483
C         30.47081        35.97662         0.71835
C         29.19454        35.27035         0.63401
C         30.45779        37.41723         0.80324
C         29.25652        38.13377         0.76527
C         30.50326        40.26282         0.50369
C         29.26890        39.57842         0.70293
C         30.46608        41.71686         0.12151
C         29.23990        42.45644         0.62302
C         30.51091        44.59445         0.64106
C         29.22234        43.85901         0.64212
C         30.46731        46.05184         0.31665
C         29.15996        46.63685         0.01053
C         30.42106        48.64719        -1.10661
C         29.09393        47.90305        -0.69727
C         30.36203        50.10018        -1.31805
C         29.09805        50.74458        -1.38862
C         30.27532        52.86495        -1.71089
C         29.09535        52.13876        -1.61881
C         32.95852        18.79028        -0.27480
C         33.00431        20.27133         0.03703
C         31.66636        20.98098        -0.05116
C         32.86034        23.10244        -0.60725
C         31.61232        22.36131        -0.35769
C         32.85094        24.50792        -0.72373
C         31.54089        25.20554        -0.98964
C         32.83852        27.36999        -0.64277
C         31.57533        26.66098        -0.59860
C         32.80749        28.80366        -0.56210
C         31.65833        29.51348        -0.22888
C         32.86237        31.65447        -0.02534
C         31.66516        30.94499        -0.02276
C         32.90206        33.15885        -0.08897
C         31.70488        33.81602         0.57121
C         33.01056        35.89577         0.98074
C         31.67480        35.29010         0.61557
C         33.04711        37.41893         0.92502
C         31.73502        38.15869         0.89115
C         32.98634        40.25188         0.33169
C         31.73381        39.58728         0.51739
C         32.98724        41.70088         0.25370
C         31.79211        42.39748         0.34075
C         33.02320        44.58167         0.05222
C         31.80962        43.86141         0.49533
C         32.99139        45.95139        -0.23767
C         31.74690        46.73610        -0.11398
C         32.89202        48.75437        -0.97419
C         31.69570        48.04827        -0.76569
C         32.86023        50.15060        -1.31480
C         31.57431        50.82847        -1.41942
C         32.77257        53.00415        -1.60675
C         31.53764        52.24372        -1.59313
C         32.80077        54.38453        -1.46524
C         35.36628        18.83630        -0.74027
C         34.08489        18.14177        -0.62736
C         35.36916        20.23043        -0.78697
C         34.03283        20.92648        -0.88396
C         35.31659        23.11252        -0.79576
C         34.09127        22.41625        -0.69014
C         35.30891        24.53647        -0.81674
C         34.06271        25.23232        -0.80568
C         35.29833        27.40682        -0.99538
C         34.05204        26.68346        -0.83140
C         35.28652        28.80351        -1.06392
C         34.02910        29.53293        -0.90689
C         35.39443        31.65901        -0.42961
C         34.07549        31.01867        -0.53850
C         35.53980        32.99117         0.16765
C         34.21769        33.78923         0.36167
C         35.50318        35.92638         0.62749
C         34.20620        35.24789         0.31238
C         35.47371        37.41703         0.30133
C         34.27802        38.11495         0.46142
C         35.44605        40.24848         0.02983
C         34.22267        39.54023         0.27655
C         35.44271        41.68252         0.01693
C         34.25488        42.40867         0.13452
C         35.41110        44.54244        -0.41832
C         34.23828        43.84950        -0.05127
C         35.38776        45.92044        -0.73492
C         34.16802        46.63789        -0.64830
C         35.34483        48.75967        -1.12234
C         34.13811        48.05473        -0.90184
C         35.31423        50.17259        -1.34200
C         34.06715        50.84532        -1.46920
C         35.30894        53.04386        -1.46580
C         34.06876        52.28966        -1.90110
C         35.26143        54.46184        -1.32190
C         34.00752        55.10579        -1.37407
C         37.83717        15.99454        -0.64279
C         36.63762        16.69450        -0.71077
C         37.82370        18.83343        -0.95035
C         36.60846        18.11841        -0.81699
C         37.82678        20.25445        -0.94072
C         36.58402        20.96298        -0.85713
C         37.79784        23.10588        -0.87174
C         36.57516        22.39470        -0.86233
C         37.78667        24.54299        -0.85410
C         36.55292        25.25522        -0.88727
C         37.78494        27.37443        -1.04810
C         36.55088        26.67652        -1.02318
C         37.83561        28.79796        -1.44659
C         36.45138        29.60536        -1.45801
C         37.54250        31.90150        -1.48081
C         36.44341        31.06736        -1.14080
C         37.94120        33.09618        -0.83924
C         36.93615        33.69689         0.20764
C         37.83324        36.02145         0.10837
C         36.72739        35.22124         0.07671
C         37.90004        37.41953        -0.23072
C         36.67583        38.12664        -0.05635
C         37.90960        40.21072        -0.50212
C         36.66326        39.54305        -0.17727
C         37.94333        41.61573        -0.54679
C         36.74008        42.36724        -0.13688
C         37.81251        44.44141        -1.22226
C         36.71006        43.85407        -0.37820
C         37.84083        45.94076        -1.13000
C         36.62076        46.62984        -1.01599
C         37.80634        48.76913        -1.25226
C         36.58936        48.05186        -1.13244
C         37.77442        50.20482        -1.28846
C         36.54724        50.90436        -1.37547
C         37.76356        53.06870        -1.19255
C         36.52894        52.34922        -1.36284
C         37.73722        54.51160        -1.02916
C         36.48944        55.19755        -1.05837
C         37.65037        57.28989        -0.53785
C         36.48640        56.59189        -0.81181
C         40.35273        14.53806        -0.46112
C         40.32194        15.94391        -0.62496
C         39.07291        16.63625        -0.79144
C         40.35910        18.79930        -0.99729
C         39.07977        18.05781        -1.28504
C         40.31842        20.25989        -1.19936
C         39.05028        20.99667        -1.01260
C         40.29666        23.14493        -0.75638
C         39.05421        22.40087        -0.91685
C         40.27333        24.56167        -0.57510
C         39.01283        25.26337        -0.73328
C         40.20523        27.40482        -0.37579
C         38.98433        26.67386        -0.75177
C         40.25587        28.91962        -0.63445
C         39.11991        29.50524        -1.34839
C         40.49656        31.51669        -1.72925
C         39.34148        30.74267        -1.93083
C         40.37607        32.99645        -1.99628
C         39.24866        33.61721        -1.09972
C         40.48848        35.77270        -1.30921
C         39.59945        34.91683        -0.65693
C         40.18493        37.25191        -1.55571
C         39.10116        38.03622        -0.73752
C         40.25994        40.20286        -1.34109
C         39.07942        39.43725        -0.85317
C         40.36259        41.65395        -1.08649
C         39.15267        42.35582        -0.84829
C         40.33058        44.47626        -1.26434
C         39.13640        43.76503        -1.00132
C         40.30665        45.92730        -1.35563
C         39.07071        46.63463        -1.26069
C         40.26860        48.79376        -1.20302
C         39.04435        48.06845        -1.26560
C         40.23475        50.21337        -1.10577
C         39.00244        50.92573        -1.18652
C         40.24916        53.06221        -0.99658
C         38.97087        52.35033        -1.13111
C         40.23014        54.56629        -0.78313
C         38.92652        55.24656        -0.76375
C         40.15269        57.35844        -0.23669
C         38.90700        56.63708        -0.50730
C         40.18806        58.75086        -0.11324
C         42.74442        14.59340        -0.16193
C         41.55409        13.87306        -0.25728
C         42.75625        15.99656        -0.29890
C         41.54677        16.68050        -0.57821
C         42.80988        18.85661        -0.62981
C         41.54236        18.12799        -0.75177
C         42.81521        20.24867        -0.67254
C         41.61528        21.02969        -1.00019
C         42.70125        23.16013        -0.25343
C         41.54026        22.46902        -0.66051
C         42.70111        24.56374        -0.08020
C         41.47811        25.26935        -0.29461
C         42.66035        27.44614        -0.05054
C         41.48559        26.71460        -0.22952
C         42.73540        28.85461        -0.34357
C         41.57821        29.54487        -0.75887
C         42.89209        31.59763        -1.16137
C         41.65179        30.89158        -1.21921
C         42.89913        33.00339        -1.46214
C         41.69704        33.69133        -1.73225
C         42.91195        35.82589        -1.68506
C         41.69445        35.10756        -1.73664
C         42.85466        37.28939        -1.84761
C         41.52317        37.99391        -1.79611
C         42.82472        40.20704        -1.64410
C         41.52853        39.49181        -1.72549
C         42.82116        41.60947        -1.60139
C         41.56802        42.34565        -1.39083
C         42.71062        44.52843        -1.99863
C         41.54644        43.76125        -1.42548
C         42.75763        45.97220        -1.53680
C         41.54580        46.65816        -1.39362
C         42.70193        48.81568        -0.92769
C         41.51463        48.09782        -1.19376
C         42.67132        50.18870        -0.61742
C         41.44803        50.91246        -0.78688
C         42.55298        52.94445         0.05149
C         41.42453        52.29395        -0.59353
C         42.52719        54.44685         0.29877
C         41.38440        55.23027        -0.16870
C         42.59892        57.30801         0.32869
C         41.37895        56.62447        -0.02632
C         42.55930        58.71406         0.43657
C         41.37945        59.41608         0.21275
C         45.18413        16.08831         0.27576
C         44.00471        16.74615        -0.16509
C         45.39469        18.80297        -0.54374
C         44.03135        18.13434        -0.38158
C         45.36807        20.32300        -0.36941
C         44.05836        21.02019        -0.46758
C         45.17912        23.13920         0.45591
C         43.92510        22.40205         0.08527
C         45.13702        24.61825         0.44285
C         43.92500        25.27310         0.23641
C         45.17895        27.46632         0.27878
C         43.86695        26.75752         0.52654
C         45.21533        28.84274        -0.04060
C         44.00629        29.54006        -0.36962
C         45.30870        31.63853        -0.74163
C         44.06254        30.91757        -0.75148
C         45.32917        33.03846        -1.01472
C         44.12198        33.73307        -1.32738
C         45.35788        35.89935        -1.39722
C         44.12934        35.15028        -1.50013
C         45.35332        37.32570        -1.55735
C         44.11283        38.06335        -1.70394
C         45.31387        40.21876        -1.90225
C         44.05875        39.46187        -1.70341
C         45.31421        41.69169        -1.71971
C         44.06777        42.34159        -1.69703
C         45.34955        44.55612        -1.58145
C         44.04658        43.79634        -1.89475
C         45.29736        45.98215        -1.25172
C         44.03910        46.69858        -1.50757
C         45.19456        48.73847        -0.43751
C         44.01342        48.16772        -1.09118
C         45.02179        50.03221         0.32701
C         43.85665        50.87268        -0.15663
C         44.92024        52.86309         0.95671
C         43.81582        52.21020         0.15635
C         44.97446        54.37805         0.79995
C         43.81397        55.12960         0.54099
C         45.06718        57.20133         0.76041
C         43.82313        56.55727         0.52924
C         46.35566        16.78898         0.55987
C         47.69367        18.87215         0.55886
C         46.48676        18.14691         0.26856
C         47.71354        20.31407         0.52239
C         46.52670        21.03775         0.23842
C         47.65803        23.13076         0.82708
C         46.48605        22.42591         0.43318
C         47.56398        24.59228         1.11745
C         46.34988        25.34851         0.72254
C         47.60492        27.54393         0.80956
C         46.36701        26.75276         0.60607
C         47.67757        28.90776         0.25285
C         46.48101        29.55520        -0.09927
C         47.75242        31.65668        -0.43803
C         46.51268        30.95024        -0.43547
C         47.76425        33.06936        -0.68563
C         46.55776        33.76782        -0.94724
C         47.79229        35.92068        -1.02137
C         46.56410        35.19815        -1.13812
C         47.79933        37.33602        -1.18284
C         46.59103        38.01512        -1.48979
C         47.90206        40.20198        -1.67875
C         46.62354        39.44195        -1.85937
C         47.85176        41.71162        -1.52077
C         46.54199        42.40929        -1.50627
C         47.72509        44.51577        -0.83279
C         46.54533        43.78408        -1.23140
C         47.67789        45.90646        -0.68202
C         46.44901        46.64921        -0.83932
C         47.60451        48.73376         0.03184
C         46.39305        48.05831        -0.43966
C         47.54340        50.11823         0.40207
C         46.30009        50.82222         0.44524
C         47.45186        52.89376         1.05285
C         46.25203        52.17902         0.74068
C         47.40797        54.31059         1.31278
C         46.20246        55.05177         1.06013
C         46.20974        56.47572         1.01799
C         50.06139        18.88759         1.13844
C         48.86682        18.19512         0.93319
C         50.10940        20.27794         1.06326
C         48.90404        21.02652         0.85651
C         50.09150        23.16080         1.58105
C         48.87218        22.45233         0.98986
C         50.15321        24.64744         1.27661
C         48.86289        25.35540         1.32016
C         50.18371        27.48941         0.81079
C         48.89522        26.84073         1.15290
C         50.17144        28.86558         0.44204
C         48.94075        29.57295         0.18843
C         50.22407        31.63925        -0.29601
C         48.96837        30.95321        -0.18303
C         50.22859        33.07780        -0.50096
C         49.00658        33.78813        -0.64706
C         50.24044        35.93072        -0.67054
C         49.01460        35.20953        -0.78574
C         50.24866        37.36577        -0.77269
C         49.04609        38.06734        -1.04125
C         50.26783        40.21558        -0.91573
C         49.08088        39.48015        -1.17741
C         50.22411        41.66740        -0.79460
C         49.03657        42.38658        -0.94836
C         50.14975        44.46810        -0.26684
C         48.98714        43.79433        -0.66692
C         50.02389        45.88550         0.25012
C         48.97550        46.67327        -0.53359
C         50.03614        48.76607         0.36800
C         48.83310        48.06997         0.03682
C         49.99732        50.13507         0.65444
C         48.74326        50.81801         0.72372
C         49.85919        52.85181         1.68669
C         48.67263        52.18968         1.11061
C         49.75223        54.27346         2.01233
C         48.59296        54.95774         1.78735
C         52.67730        20.31721         1.23634
C         51.40182        20.99279         0.99496
C         52.65209        23.19154         1.42534
C         51.38537        22.50008         1.15458
C         52.57350        24.65302         1.81306
C         51.33986        25.34558         1.25349
C         52.66244        27.44247         0.79384
C         51.38436        26.77107         0.96977
C         52.65015        28.80167         0.33821
C         51.42916        29.52042         0.21186
C         52.70353        31.58963        -0.36812
C         51.41747        30.91059        -0.14533
C         52.71608        33.07788        -0.55216
C         51.44264        33.81637        -0.47415
C         52.73751        35.96026        -0.19062
C         51.45229        35.21853        -0.49263
C         52.73289        37.40973        -0.59690
C         51.48706        38.09248        -0.67737
C         52.73029        40.23672        -0.30906
C         51.47047        39.51233        -0.69464
C         52.66993        41.71262        -0.58101
C         51.45537        42.38235        -0.52640
C         52.59840        44.50680         0.09128
C         51.40870        43.80678        -0.25315
C         52.55582        45.92239         0.38564
C         51.33337        46.64142         0.31464
C         52.53376        48.75647         0.61526
C         51.31233        48.04242         0.41002
C         52.54567        50.19758         0.77364
C         51.25606        50.96967         0.59615
C         52.46771        52.96564         1.56031
C         51.20862        52.19104         1.49828
C         53.82291        21.03477         1.32108
C         55.11821        23.16951         1.23664
C         53.83317        22.48448         1.34892
C         55.22489        24.61158         1.56215
C         53.90673        25.40595         1.62767
C         55.17279        27.50050         0.96810
C         53.88210        26.78722         1.10957
C         55.20282        28.80657         0.31873
C         53.93165        29.42075        -0.19841
C         55.18425        31.67606         0.29806
C         53.94369        30.90609        -0.03913
C         55.22685        33.09231        -0.25359
C         53.99368        33.81759        -0.45281
C         55.19514        35.89197        -0.94072
C         53.97075        35.18838        -0.58986
C         55.21964        37.38878        -1.00746
C         53.95499        38.14092        -0.76962
C         55.27757        40.28067        -1.06202
C         53.98600        39.52624        -0.74093
C         55.23752        41.76935        -0.67139
C         53.91509        42.48759        -0.53704
C         55.07695        44.52135         0.25651
C         53.86988        43.85712         0.01289
C         55.04792        45.91901         0.64398
C         53.76403        46.61932         0.64127
C         55.01577        48.74070         0.92031
C         53.73387        48.02722         0.75250
C         55.01684        50.23911         1.06370
C         53.70186        50.91697         1.02086
C         53.63920        52.34292         1.30004
C         57.32015        23.21831         0.13068
C         56.11764        22.55327         0.52345
C         57.56055        24.52092         0.46125
C         56.61297        25.26071         1.37727
C         57.70006        27.37857         0.42714
C         56.53027        26.75309         1.06383
C         57.65679        28.72760         0.10592
C         56.41318        29.46328         0.10805
C         57.63344        31.60222        -0.10394
C         56.45293        30.91467        -0.02864
C         57.67298        33.06997         0.26113
C         56.43156        33.75391        -0.25724
C         57.74312        35.91366        -0.43559
C         56.52346        35.13181        -0.74210
C         57.72758        37.31700        -0.37667
C         56.53004        38.10253        -0.76362
C         57.57487        40.21439         0.01324
C         56.49329        39.56012        -0.49317
C         57.57337        41.66394         0.21803
C         56.40425        42.40767        -0.02550
C         57.52084        44.46445         0.69824
C         56.34405        43.80364         0.28281
C         57.56072        45.97575         0.71178
C         56.21062        46.57560         0.99362
C         57.40546        48.69449         1.74587
C         56.10824        47.94830         1.60191
C         57.33933        50.09565         1.93124
C         56.19448        50.83503         1.71272
C         59.98617        24.42791        -0.11025
C         58.82722        25.17786         0.15880
C         60.12966        27.24080        -0.13168
C         58.89330        26.59621         0.15496
C         60.16979        28.69144        -0.23899
C         58.87983        29.38345        -0.38578
C         60.18024        31.60895        -0.27970
C         58.89088        30.91980        -0.44691
C         60.17212        33.06790        -0.17302
C         58.95811        33.77061        -0.11556
C         60.17908        35.91924        -0.07870
C         58.95412        35.19565        -0.18044
C         60.12907        37.35010         0.09938
C         58.88573        38.02108         0.02957
C         60.05271        40.20748         0.52763
C         58.75736        39.43412         0.55500
C         60.00534        41.61957         0.75557
C         58.75442        42.32873         0.65828
C         59.91275        44.42014         1.32891
C         58.72548        43.74107         0.88739
C         59.84446        45.81377         1.76495
C         58.66992        46.56434         1.55251
C         59.73758        48.50496         2.59458
C         58.60619        47.92771         1.96179
C         61.20253        25.06634        -0.35550
C         61.27790        26.45695        -0.36390
C         61.33487        29.43136        -0.28616
C         61.33784        30.85478        -0.28568
C         61.38716        33.80999        -0.19989
C         61.39230        35.18541        -0.09464
C         61.31111        38.11767         0.31803
C         61.26333        39.49734         0.47529
C         61.17104        42.35095         1.06809
C         61.11813        43.70715         1.37298
C         60.93514        46.41354         2.43627
C         60.87748        47.74789         2.83556
O         29.65062        47.84122        -2.06293
O         45.98731        39.75360        -3.12894
O         31.22845        46.86247         1.28341
O         56.01044        27.50047         2.20037
O         52.75222        32.21121        -1.75686
O         25.51018        27.05935        -1.19275
O         50.51934        52.02756         2.75867
O         23.46208        45.73936         3.17314
O         37.07041        43.35639         0.93412
O         31.30721        44.29078         1.83507
O         44.96947        20.98327        -1.63919
O         37.09499        29.11940        -2.65755
O         27.20649        31.53838        -1.37762
O         41.09825        20.73485        -2.34971
O         31.18314        33.20941         1.78512
O         54.70365        42.53443        -1.80928
O         42.09775        37.61697        -3.09380
O         38.28658        31.42084        -2.57443
O         55.39104        49.55360        -0.21551
O         44.92354        44.24723        -2.97029
O         48.18483        41.08040        -2.80949
O         33.84163        30.55838        -1.94522
O         40.61681        39.98645        -2.76825
O         29.70353        29.01659         1.22550
O         32.49230        37.97166         2.17046
O         39.03320        35.43850         0.48376
O         48.13712        27.52707         2.19398
O         39.94660        28.38604         0.68999
O         56.03418        37.82732        -2.12144
O         34.87321        33.09949         1.47525
O         44.29556        22.53425         1.49670
O         42.14455        53.51627         1.41040
O         48.05358        24.92131         2.47475
O         51.37937        21.90616        -0.17735
O         40.55983        53.98970        -2.11708
O         58.75951        30.10269        -1.65460
O         44.21476        47.77766        -2.50002
O         28.37560        27.04727        -1.77963
O         54.71034        25.10970         2.83643
O         55.92416        35.30414        -2.05923
O         55.61387        47.75602         2.98040
H         56.29672        47.25509         3.47502
O         55.17458        31.83950         1.78351
H         55.20360        30.93802         2.17377
O         24.34492        49.22120         1.98394
H         23.60163        48.92965         2.55574
O         39.05366        17.93675        -2.76878
H         38.23989        17.43919        -2.99969
O         25.01782        37.78077        -0.70396
H         25.66003        37.37905        -1.32545
O         58.45402        39.26252         1.99644
H         59.20894        38.78039         2.39709
O         27.51764        24.26975        -1.83607
H         27.48367        25.18479        -2.20608
O         37.50265        33.42278         1.49714
H         36.91495        33.86075         2.15514
O         44.56136        52.58672         2.35870
H         43.64146        52.94014         2.46852
O         55.43627        40.23645        -2.50079
H         54.99351        41.04038        -2.86219
O         52.81432        35.99869         1.29426
H         52.13424        36.63282         1.60783
O         43.66394        26.84774         1.99103
H         44.43070        26.40967         2.42044
O         52.77403        40.18333         1.19476
H         51.90957        40.51784         1.51847
O         40.05054        33.25038        -3.38209
H         39.25458        32.71086        -3.59799
O         57.26005        25.17450         2.67488
H         56.67508        25.66443         3.29760
O         31.40097        25.17691        -2.45079
H         30.53703        25.58586        -2.67522
O         24.87084        37.79634         2.95130
H         24.25575        38.24068         3.57179
O         49.98723        22.99661         3.01766
H         49.29814        23.63356         3.32492
O         49.52428        45.78122         1.61644
H         50.23326        45.39576         2.17219
O         52.28472        24.65645         3.24177
H         53.15128        24.58102         3.70641
O         51.28564        51.51682        -0.76605
H         51.48541        50.78084        -1.38265
O         42.41146        44.61119        -3.43037
H         43.26600        44.80714        -3.88127
O         37.42568        44.11532        -2.60435
H         38.13371        44.44168        -3.20005
O         34.15429        52.24582        -3.38270
H         34.16889        53.17521        -3.69690
O         44.65170        49.65828         1.69772
H         44.60300        50.50255         2.21064
O         33.11194        35.52647         2.41184
H         32.67074        36.26174         2.90614
O         53.92276        29.14576        -1.65970
H         53.40887        29.86256        -2.09329
O         57.88598        46.37214        -0.67379
H         57.18553        46.00915        -1.25741
O         45.76800        18.54716        -1.93602
H         45.36717        19.27890        -2.46345
O         35.74238        35.83178         2.08621
H         34.86959        35.59984         2.50502
O         39.52842        37.19326        -2.85643
H         40.24141        37.20610        -3.53848
O         49.50590        46.83067        -1.88171
H         48.80560        47.22407        -2.44358
O         33.54304        20.71543        -2.24220
H         34.13813        21.19152        -2.85823
O         32.75607        33.48217        -1.51069
H         33.16267        32.76310        -2.04308
O         23.90034        31.00029        -1.32259
H         23.12042        30.43256        -1.50041
O         33.47718        20.43464         1.40199
H         32.82542        20.01722         2.00245
O         30.28865        41.73653        -1.35794
H         30.99456        41.17498        -1.74479
O         57.63464        33.13470         1.72555
H         56.76188        32.75201         2.00404
O         25.82760        28.77611         2.04294
H         25.80860        29.68129         2.41995
O         24.45700        33.60851         2.62399
H         23.84480        34.22090         3.08527
H         23.15260        23.58554         1.81439
H         21.16046        24.88435         2.43061
H         21.03814        27.32312         2.02664
H         20.79923        29.05990         0.99356
H         20.71850        31.48633         0.90299
H         20.77637        33.45421         1.02675
H         20.86847        35.84166         1.35059
H         20.93281        37.72956         1.74048
H         21.07479        40.09313         2.20938
H         21.31421        41.78956         3.05061
H         21.53052        44.18409         3.69279
H         21.18466        46.84232         2.43454
H         22.90558        49.28557        -0.70100
H         20.88522        48.25376         0.33114
H         24.74367        22.62646         1.40243
H         24.53295        50.66889        -0.54876
H         26.80253        21.40350         1.08475
H         26.53673        51.72231        -1.48594
H         30.52875        19.24274         0.59376
H         28.37816        20.39038         0.66365
H         30.21237        53.94854        -1.88085
H         28.14724        52.68547        -1.70320
H         32.02070        18.22605        -0.16812
H         31.86150        54.94640        -1.35980
H         34.04263        17.06013        -0.81784
H         33.94247        56.19561        -1.26085
H         37.79318        14.91977        -0.41970
H         35.70193        16.13665        -0.58197
H         37.58280        58.36841        -0.34187
H         35.53978        57.14838        -0.82253
H         39.42623        13.95271        -0.51972
H         39.27961        59.34765        -0.27034
H         43.67475        14.03893         0.01184
H         41.56738        12.77904        -0.15817
H         43.46380        59.27606         0.70444
H         41.37642        60.51126         0.30145
H         45.16475        15.01618         0.50629
H         45.13500        58.29687         0.73182
H         47.17321        16.24477         1.05212
H         47.14924        57.02103         1.17788
H         50.97696        18.31105         1.32571
H         48.88462        17.09913         0.98423
H         50.61410        54.78335         2.46351
H         48.55786        56.02550         2.04253
H         52.70368        19.22708         1.36885
H         52.45168        54.02107         1.86596
H         54.77315        20.50838         1.48719
H         54.57836        52.91060         1.35505
H         58.03856        22.65855        -0.48389
H         55.97925        21.51831         0.18314
H         58.23787        50.63375         2.26749
H         56.19775        51.90663         1.95528
H         59.94603        23.33041        -0.09599
H         59.70987        49.55077         2.92726
H         62.10413        24.46866        -0.54795
H         62.23832        26.94249        -0.58324
H         62.30818        28.92410        -0.22996
H         62.31593        31.34961        -0.21187
H         62.34837        33.28225        -0.25756
H         62.35633        35.70995        -0.05234
H         62.29159        37.62424         0.31620
H         62.21755        40.03694         0.54813
H         62.14329        41.84461         1.12368
H         62.05215        44.21238         1.65152
H         61.84527        45.83757         2.64717
H         61.73790        48.20216         3.34610
