         316
 CSIRO Nanostructure Databank - Neutral Graphene Oxide Data Set
C         30.45075        31.47825        -0.91675
C         30.28904        32.73454        -0.79303
C         30.31430        35.86329        -0.27395
C         30.33926        37.02842         0.15707
C         30.48093        40.15126         1.21365
C         30.47920        41.38069         1.38479
C         32.93308        28.62426        -0.56241
C         31.88258        29.29655        -0.78309
C         32.68745        31.47794         0.00623
C         31.51330        30.63006        -0.67549
C         32.78074        32.88817        -0.54264
C         31.50685        33.62666        -1.05143
C         32.63705        35.87320        -0.79107
C         31.47291        34.91808        -0.24583
C         32.69076        37.21022        -0.02747
C         31.52792        37.87145         0.29332
C         32.77503        40.10009         0.58480
C         31.39856        39.37714         0.29286
C         32.65242        41.64753         0.36778
C         31.65201        42.30452         1.47256
C         32.75605        44.29629         0.75771
C         31.67617        43.75367         1.05731
C         35.63805        27.28838         0.30355
C         35.32060        28.68329         0.44945
C         33.96025        29.29377         0.36459
C         35.12803        31.57705         0.50064
C         34.03890        30.76360        -0.17292
C         35.20130        32.98139         0.08841
C         33.93526        33.60823        -0.35996
C         35.27568        35.80208        -0.83221
C         33.96583        35.01726        -0.93071
C         35.21322        37.27055        -0.55881
C         34.02238        37.91048         0.13290
C         35.24305        40.16276        -0.13158
C         33.88780        39.41370        -0.26067
C         35.07169        41.65093        -0.51309
C         33.98728        42.39076         0.25088
C         35.15426        44.51722        -0.39247
C         34.00142        43.76568         0.23707
C         35.42692        45.92053         0.01293
C         37.77113        27.21385         1.39901
C         36.52738        26.64367         0.88203
C         37.68053        28.79090         1.45682
C         36.34595        29.42940         0.99870
C         37.80851        31.54063        -0.33331
C         36.10771        30.87365         1.22183
C         37.72190        32.99944        -0.01377
C         36.42356        33.67547        -0.05660
C         37.65437        35.83870        -0.16192
C         36.49026        35.11767        -0.27763
C         37.67007        37.36819        -0.18129
C         36.37326        37.97652        -0.64634
C         37.66903        40.18065        -0.83870
C         36.34537        39.44730        -0.98858
C         37.46007        41.61800        -1.00504
C         36.40781        42.34957        -0.54955
C         37.81365        44.65244        -0.39641
C         36.52193        43.77104        -0.00769
C         37.83054        46.01775         0.42942
C         36.46564        46.58162         0.09228
C         40.32948        24.46171         0.96829
C         39.26830        25.10501         0.96029
C         40.43954        27.29646         1.21841
C         39.07883        26.50239         1.35994
C         40.16948        28.54916         0.31783
C         38.98922        29.41866         0.82425
C         40.24015        31.49831        -0.23616
C         38.98618        30.80914         0.27494
C         40.21493        32.92339         0.37775
C         38.91249        33.67052         0.10287
C         40.16881        35.81412        -0.46303
C         38.93443        35.17254         0.30418
C         40.15283        37.34873        -0.24225
C         38.92600        38.06361        -0.80788
C         40.09640        40.43733         0.03068
C         38.89389        39.60364        -0.60057
C         40.48528        41.81031        -0.61677
C         39.38911        42.77479        -0.88363
C         40.41951        44.62863         0.27374
C         39.18697        43.96362        -0.26751
C         40.35530        46.08427         0.64960
C         39.08294        46.83039         0.10079
C         40.29800        48.85865         0.67954
C         39.24478        48.20620         0.70595
C         42.88395        24.42375         0.50417
C         41.63931        25.01592         0.74811
C         42.79759        27.14971         0.26053
C         41.64283        26.45964         0.70404
C         42.68247        28.58916        -0.23086
C         41.45044        29.36493         0.19738
C         42.76905        31.49845         0.37126
C         41.48426        30.71986         0.11200
C         42.67015        32.98337         0.10524
C         41.49427        33.64647        -0.00256
C         42.69017        35.89864         0.28664
C         41.42875        35.14095         0.06187
C         42.70803        37.40440         0.32454
C         41.38359        38.11668         0.15318
C         42.74078        40.34002         0.47356
C         41.41591        39.63245         0.25963
C         42.78508        41.88281         0.60138
C         41.76261        42.51959        -0.31942
C         42.99318        44.80331         0.05292
C         41.70612        44.07412        -0.41074
C         42.79231        46.15797         0.66705
C         41.63578        46.84592         0.74325
C         42.80614        48.79553        -0.07281
C         41.70791        48.42141         0.91344
C         43.89329        25.10034         0.13990
C         45.15254        27.19056        -0.73666
C         44.01182        26.47138        -0.07244
C         45.25564        28.63458        -0.20186
C         43.97953        29.36828        -0.01642
C         45.28936        31.56546         0.01369
C         43.97498        30.86361        -0.34880
C         45.23794        32.95424         0.23072
C         43.97853        33.69868        -0.19734
C         45.28387        35.85153        -0.16830
C         44.02669        35.15256         0.40206
C         45.27502        37.39295        -0.06286
C         44.00768        38.14036         0.26371
C         45.33109        40.30698         0.48920
C         44.02864        39.65194         0.00108
C         45.37762        41.78089         0.87391
C         44.15746        42.54431         0.30014
C         45.43971        44.70728         0.46906
C         44.12946        44.01539         0.78588
C         45.35965        46.25215         0.56224
C         44.03165        46.64814        -0.07639
C         43.71702        48.04305        -0.43303
C         47.59840        27.31199        -0.63075
C         46.54586        26.65996        -0.60332
C         47.82217        28.67795        -0.01568
C         46.51579        29.43195        -0.51150
C         47.79539        31.40109         0.58777
C         46.49016        30.83838         0.03798
C         47.76713        32.93729         0.73957
C         46.41282        33.68814         0.86714
C         47.72663        35.87608         0.47806
C         46.51269        35.16427         0.41814
C         47.72774        37.38407         0.71469
C         46.54083        38.14057         0.15250
C         47.78384        40.29346         0.17103
C         46.49335        39.60493         0.46050
C         47.82511        41.77933         0.17307
C         46.68040        42.48903         0.47212
C         47.80397        44.63267        -0.28136
C         46.74004        44.00475         0.67211
C         47.71819        46.10649        -0.22420
C         46.61524        46.67487        -0.15110
C         52.39527        29.09451         0.45041
C         48.98454        29.50865        -0.48984
C         50.08628        31.77800        -0.73294
C         49.02472        30.84343        -0.16963
C         50.31257        33.08850         0.13385
C         49.01649        33.73918         0.60316
C         50.21247        35.91162         1.02996
C         48.95355        35.22090         0.61727
C         50.20739        37.41376         0.80056
C         49.06640        38.06218         0.47103
C         50.40644        40.19630        -0.10480
C         49.05869        39.49916         0.07049
C         50.32656        41.71636        -0.16814
C         49.09609        42.39565        -0.19622
C         50.33806        44.36558        -0.91292
C         49.01862        43.81999        -0.63847
C         51.99975        30.12221        -0.16355
C         52.29858        32.18905        -1.53480
C         51.51614        31.19586        -0.85325
C         52.26781        33.40697        -1.25177
C         51.14220        34.22692        -0.69637
C         52.49908        36.15335         0.49762
C         51.44446        35.34868         0.24410
C         52.68654        37.24166         1.22865
C         51.50761        38.13090         1.05558
C         52.71776        40.45764         0.50786
C         51.55092        39.60667         0.76960
C         52.70575        41.58881        -0.01564
C         51.59357        42.41616        -0.33111
C         51.40834        43.79030        -0.60891
O         51.28382        39.17332         2.09226
O         38.42231        42.30238        -1.75447
O         40.37641        37.67834         1.14918
O         47.90182        44.05931        -1.57160
O         37.18207        31.01719        -1.25051
O         41.79852        35.51167         1.42174
O         44.73556        28.89201         1.12726
O         34.21521        34.81911        -2.38700
O         39.26919        30.56062         1.68843
O         35.41029        35.67806        -2.34017
O         50.90532        39.75831        -1.45959
O         38.37536        26.68222         2.60496
O         40.30138        45.02839         1.66678
O         43.72686        45.53406        -1.05766
O         48.60896        33.24292         1.92552
O         41.56525        41.82888        -1.58927
O         42.01151        39.82702         1.60270
O         46.04573        37.92969        -1.20754
O         43.45434        37.79070         1.54756
O         48.24100        39.72597        -1.13037
O         46.15288        33.65708         2.29866
H         47.00446        33.86632         2.74816
O         47.79471        28.51794         1.37594
H         48.70229        28.54539         1.74038
O         37.63331        45.00610        -1.78020
H         37.81186        44.20046        -2.31772
O         40.28358        32.81060         1.82517
H         40.06709        33.70726         2.18369
O         32.02693        41.88513        -0.89304
H         32.68597        41.65897        -1.59541
O         47.51941        37.53567         2.15494
H         48.19422        36.99330         2.62018
O         44.27983        42.58126        -1.12667
H         45.01104        43.18948        -1.37148
O         42.44391        28.45977        -1.67096
H         43.25084        28.06393        -2.09178
O         43.91409        33.67328        -1.64640
H         44.75768        34.01350        -2.02213
O         36.06900        39.49884        -2.40360
H         35.08894        39.44008        -2.52941
O         36.87244        31.53769         2.10108
H         37.52478        30.92289         2.53295
O         39.10309        35.36920         1.72484
H         39.16532        36.33875         1.90076
O         50.31357        34.74197        -1.71625
H         50.02319        33.99537        -2.29214
O         46.60726        29.56129        -1.95741
H         46.46189        28.66782        -2.34775
O         44.26989        35.07209         1.80583
H         43.40136        35.02103         2.26605
O         50.36255        40.63511        -2.46999
H         49.41822        40.33357        -2.53505
O         34.30578        30.72596        -1.58466
H         35.28126        30.77764        -1.72552
O         39.28099        46.97437        -1.28823
H         38.56306        46.51354        -1.78684
O         38.89594        37.85566        -2.23667
H         38.09239        38.29623        -2.59832
O         45.40273        35.60623        -1.59769
H         45.99581        36.31193        -1.95680
O         39.60473        40.80648         1.32863
H         39.39502        39.98245         1.82094
O         49.82666        28.83712        -1.29769
H         50.66085        29.32335        -1.47043
O         42.38281        42.21730         1.93862
H         41.89755        41.43098         2.30226
O         30.96496        39.63120        -1.04867
H         30.19658        39.04686        -1.23074
O         44.86630        27.29895        -2.16182
H         44.88175        26.39409        -2.54254
O         37.70571        37.78253         1.22267
H         36.78632        37.74573         1.57627
O         37.72417        29.11380         2.85729
H         38.46831        28.61154         3.26350
O         32.26833        36.33639        -2.09025
H         32.74974        35.79106        -2.76113
O         47.86410        30.90674         1.95155
H         47.09968        31.27545         2.44499
O         50.43355        35.64048         2.42673
H         51.33772        35.96951         2.64175
O         51.08275        32.73829         1.26392
H         50.48940        32.71580         2.04990
O         47.22581        44.25235         2.03601
H         46.50288        43.96254         2.63862
O         45.27695        41.83267         2.32015
H         45.90726        41.18600         2.70176
O         36.48694        43.53587         1.40211
H         36.86722        44.31176         1.88211
O         39.76207        28.06056        -0.97307
H         40.53304        28.13517        -1.58667
O         33.52155        39.43154        -1.64682
H         32.54744        39.26868        -1.74214
O         34.42267        37.70668         1.51995
H         33.87748        38.30119         2.09100
O         45.39999        46.67447         1.90952
H         46.20758        46.30252         2.32530
O         37.84400        45.75377         1.82536
H         38.11999        46.56504         2.30284
O         43.74996        30.96630        -1.76612
H         44.57710        30.70408        -2.22651
O         40.77387        27.79556         2.51264
H         41.00451        27.04578         3.09983
O         32.35277        31.59278         1.38115
H         31.76066        32.36886         1.49839
O         42.12950        48.70214         2.21583
H         42.12703        49.66947         2.36158
O         34.60570        41.70848        -1.90043
H         34.73209        42.64717        -2.19815
O         44.01828        44.15590         2.20746
H         43.49810        43.39370         2.56572
O         34.98432        44.43817        -1.81998
H         34.27604        45.06305        -2.08203
O         43.01186        31.36345         1.79158
H         42.22243        31.72525         2.25600
O         40.19551        31.60585        -1.66538
H         41.07546        31.89194        -1.99210
O         49.63239        32.20166        -2.04509
H         49.23288        31.43307        -2.50564
O         33.10339        39.87234         1.97052
H         32.62616        40.52931         2.54106
O         40.09255        35.49239        -1.85199
H         39.47984        36.12641        -2.29911
O         41.48316        44.41220        -1.78351
H         42.27932        44.15540        -2.29543
O         31.59423        33.88183        -2.43430
H         31.63137        33.02790        -2.91271
O         31.70374        34.55419         1.10870
H         31.58013        35.34420         1.67643
O         35.72436        40.08996         1.21267
H         34.99910        40.34974         1.82583
O         44.02653        39.82603        -1.43200
H         44.86441        39.44327        -1.78468
O         32.21062        42.21222         2.77067
H         31.62027        42.66567         3.40797
O         33.42695        29.28885         1.67536
H         33.51942        28.39241         2.05876
