         600
 CSIRO Nanostructure Databank - Neutral Graphene Oxide Data Set
C         23.17630        27.17110        -1.55642
C         23.30466        28.33124        -2.30194
C         23.32302        32.01929        -2.50723
C         23.20475        33.25445        -1.89669
C         23.06530        35.95068        -0.78235
C         23.03445        37.30156        -0.50948
C         22.99499        40.22191        -0.13640
C         22.98926        41.60173        -0.07469
C         22.97924        44.54468        -0.17396
C         22.96845        45.93180        -0.10047
C         25.40901        24.73955         0.13842
C         24.26230        25.35810        -0.28803
C         25.53524        27.38640        -0.87505
C         24.30956        26.65360        -0.88823
C         25.60700        28.69883        -1.44997
C         24.50997        29.05338        -2.26043
C         25.65207        31.78638        -1.71369
C         24.54119        31.31827        -2.42233
C         25.58619        33.16383        -1.29347
C         24.34276        33.87037        -1.32474
C         25.50560        35.95643        -0.67733
C         24.29614        35.25302        -0.90757
C         25.47483        37.37148        -0.47238
C         24.23130        38.05531        -0.39526
C         25.42814        40.22340        -0.25925
C         24.20662        39.49598        -0.24831
C         25.40780        41.64653        -0.24575
C         24.19330        42.34761        -0.16713
C         25.41769        44.52846        -0.06544
C         24.18549        43.81565        -0.15126
C         25.41358        45.95259         0.04357
C         24.17457        46.65714         0.01488
C         25.36831        48.77432         0.15851
C         24.18541        48.08359         0.09002
C         27.92616        23.26962         0.51725
C         27.90928        24.66105         0.21108
C         26.67953        25.37959         0.00756
C         27.96259        27.44135        -0.49296
C         26.72146        26.73659        -0.41687
C         27.97446        28.85102        -0.80446
C         26.79818        29.52800        -1.25389
C         28.02424        31.66621        -1.07451
C         26.83896        30.96416        -1.40165
C         28.08782        33.16905        -1.26489
C         26.78074        33.86286        -0.97028
C         27.98280        35.96797        -0.49731
C         26.75938        35.24801        -0.71925
C         27.95822        37.38120        -0.34406
C         26.70563        38.10578        -0.36541
C         27.90847        40.24859        -0.08900
C         26.68330        39.51108        -0.27031
C         27.91354        41.65247        -0.06976
C         26.68764        42.39675        -0.51737
C         27.87175        44.52709         0.11821
C         26.66876        43.83673        -0.07317
C         27.88307        45.96291         0.20210
C         26.64361        46.67424         0.13958
C         27.87242        48.81234         0.20059
C         26.62935        48.09850         0.17373
C         27.91137        50.23659         0.16491
C         30.36282        23.20153         0.37994
C         29.10531        22.56682         0.59340
C         30.37868        24.59956         0.13227
C         29.14982        25.33146         0.03845
C         30.41555        27.43433        -0.27552
C         29.16611        26.74042        -0.23437
C         30.42507        28.84873        -0.42271
C         29.20370        29.55956        -0.65488
C         30.45173        31.68912        -0.49874
C         29.22390        30.97913        -0.75571
C         30.44841        33.12089        -0.36916
C         29.26030        33.83995        -0.59314
C         30.40639        35.92117         0.02903
C         29.22103        35.23971        -0.36495
C         30.39372        37.36294         0.08642
C         29.16684        38.08595        -0.13747
C         30.32731        40.20004         0.32034
C         29.15192        39.51857         0.03001
C         30.28535        41.62981         0.61895
C         29.08431        42.38581         0.24799
C         30.35409        44.51943         0.39793
C         29.11838        43.79950         0.25608
C         30.36312        45.95784         0.35348
C         29.11101        46.67028         0.27858
C         30.34936        48.81452         0.24505
C         29.10826        48.09887         0.24560
C         30.35136        50.23252         0.17016
C         29.10156        50.91861         0.14172
C         32.80630        20.34823         0.48411
C         31.61965        21.05117         0.54721
C         32.84395        23.14466         0.23361
C         31.60025        22.45906         0.39066
C         32.83682        24.56290         0.10214
C         31.63668        25.27715         0.00055
C         32.85719        27.42084        -0.27830
C         31.64288        26.72170        -0.17398
C         32.88523        28.83237        -0.29935
C         31.65907        29.55314        -0.34784
C         32.89426        31.67668        -0.07145
C         31.66307        30.98351        -0.31761
C         32.87862        33.08717         0.16731
C         31.64576        33.79754         0.03974
C         32.81717        35.86810         0.69395
C         31.62594        35.20468         0.24181
C         32.74291        37.33177         0.88310
C         31.57018        38.04799         0.37274
C         32.86315        40.25026         0.59783
C         31.64142        39.51790         0.10425
C         32.86945        41.64945         0.60495
C         31.60287        42.39188         0.73374
C         32.83350        44.51985         0.45392
C         31.59095        43.83459         0.49613
C         32.84077        45.94743         0.43897
C         31.58683        46.65998         0.40570
C         32.80894        48.81546         0.37309
C         31.59498        48.10598         0.34528
C         32.82774        50.22942         0.21663
C         31.59802        50.94334         0.11509
C         32.83559        53.02810        -0.10461
C         31.63974        52.35726        -0.03047
C         35.36593        18.80320         0.45104
C         35.25749        20.19549         0.00376
C         34.03871        21.00367         0.25562
C         35.35028        23.11508        -0.00712
C         34.07876        22.40848         0.16045
C         35.37979        24.52682        -0.04595
C         34.12955        25.32383         0.25802
C         35.38501        27.40360        -0.28059
C         34.11405        26.63088        -0.51856
C         35.36903        28.83121        -0.21412
C         34.13791        29.54443        -0.21827
C         35.35024        31.67089         0.17874
C         34.12432        30.96091        -0.03971
C         35.33463        33.06639         0.48847
C         34.07662        33.77470         0.52752
C         35.26059        35.85181         1.34256
C         34.02004        35.16355         0.87177
C         35.29515        37.36651         1.32618
C         34.01594        38.11805         1.11669
C         35.31267        40.22411         0.72883
C         34.08176        39.55049         0.75374
C         35.32496        41.64899         0.55722
C         34.09023        42.36776         0.58247
C         35.30715        44.50214         0.45651
C         34.07773        43.79993         0.50765
C         35.30547        45.93560         0.44495
C         34.07738        46.63643         0.48023
C         35.34165        48.81384         0.33842
C         34.08163        48.11292         0.77414
C         35.32971        50.20978         0.15336
C         34.07742        50.93741         0.13334
C         35.33154        53.05364        -0.18392
C         34.07952        52.33665        -0.04384
C         35.36143        54.45719        -0.34052
C         37.80989        18.80447         0.14655
C         36.55209        18.14084         0.40296
C         37.83719        20.20619         0.03229
C         36.58411        20.94158        -0.18807
C         37.82106        23.09164        -0.03895
C         36.58177        22.40815        -0.07725
C         37.84253        24.52075        -0.13635
C         36.59312        25.23413        -0.20174
C         37.83094        27.42362        -0.41280
C         36.57266        26.67959        -0.27330
C         37.83636        28.86288        -0.11661
C         36.60293        29.54896        -0.05594
C         37.81754        31.66047         0.32431
C         36.58771        30.96569         0.14668
C         37.79496        33.06162         0.60721
C         36.56260        33.73498         0.72210
C         37.80496        35.91281         1.03424
C         36.58517        35.08132         1.40165
C         37.78457        37.33964         1.01389
C         36.56688        38.08853         1.07163
C         37.79546        40.16672         0.61130
C         36.56069        39.47664         0.83510
C         37.79558        41.59413         0.09888
C         36.54173        42.36499         0.41543
C         37.79107        44.50620         0.37281
C         36.54744        43.77543         0.40979
C         37.78256        45.93307         0.34577
C         36.55426        46.65014         0.38082
C         37.79224        48.78451         0.11650
C         36.55576        48.08465         0.28568
C         37.79280        50.20048        -0.02827
C         36.56116        50.91338        -0.03295
C         37.79677        53.04376        -0.33061
C         36.56117        52.33902        -0.18418
C         37.79442        54.45949        -0.47213
C         36.55596        55.13915        -0.48025
C         40.27034        15.96212         0.03965
C         39.07889        16.64924         0.09255
C         40.27989        18.78688         0.17134
C         39.05016        18.07220         0.15136
C         40.28983        20.21824         0.20041
C         39.06231        20.93225         0.10416
C         40.29109        23.06646         0.19731
C         39.06288        22.36579         0.06798
C         40.30053        24.50530         0.16639
C         39.08669        25.19989        -0.08069
C         40.34065        27.39459         0.07966
C         39.14061        26.65020        -0.31301
C         40.30365        28.80866         0.17512
C         39.06543        29.54096         0.08430
C         40.27797        31.64809         0.57780
C         39.05629        30.95157         0.31011
C         40.25981        33.08201         0.77205
C         39.04155        33.77265         0.78926
C         40.26271        35.93437         0.88512
C         39.02158        35.21806         0.89896
C         40.24174        37.33697         0.89830
C         39.01713        38.05698         0.87202
C         40.26680        40.18477         0.25610
C         38.99622        39.47876         0.67577
C         40.26272        41.68290         0.46454
C         39.05640        42.36880         0.40765
C         40.26857        44.51366         0.42869
C         39.03185        43.79785         0.41112
C         40.26441        45.94211         0.32661
C         39.02889        46.64950         0.27311
C         40.26690        48.77631         0.02182
C         39.03066        48.06779         0.13821
C         40.26918        50.19782        -0.15137
C         39.03562        50.90845        -0.17527
C         40.27147        53.01867        -0.51055
C         39.03640        52.32277        -0.32830
C         40.26506        54.46278        -0.61353
C         39.04948        55.17700        -0.57464
C         40.25744        57.29868        -0.60106
C         39.07365        56.60535        -0.59668
C         42.74977        15.95564         0.00174
C         41.51192        16.65516         0.06634
C         42.76066        18.77998         0.21643
C         41.51812        18.07422         0.15262
C         42.76406        20.20648         0.34046
C         41.52634        20.92577         0.29586
C         42.75832        23.06068         0.47036
C         41.52402        22.35027         0.32740
C         42.75237        24.49046         0.51819
C         41.52435        25.22122         0.34635
C         42.72619        27.39087         0.59106
C         41.52530        26.66345         0.35171
C         42.73675        28.79488         0.61082
C         41.50448        29.52337         0.47964
C         42.72917        31.61622         1.17210
C         41.48629        30.92700         0.65776
C         42.74496        33.09542         0.89705
C         41.51788        33.80142         0.87691
C         42.76618        35.92182         0.97921
C         41.52082        35.22112         0.90406
C         42.78850        37.36682         1.02918
C         41.50148        38.07696         1.08884
C         42.77767        40.25621         0.68608
C         41.49379        39.56063         0.87349
C         42.75833        41.67036         0.58069
C         41.50615        42.38134         0.53173
C         42.74653        44.52368         0.48897
C         41.50370        43.80410         0.49351
C         42.74001        45.94057         0.35965
C         41.50095        46.65444         0.26248
C         42.74201        48.78845        -0.00218
C         41.50051        48.06912         0.08908
C         42.75043        50.18639        -0.24843
C         41.50266        50.90295        -0.33152
C         42.74418        53.00540        -0.99653
C         41.48613        52.30179        -0.54702
C         42.75012        54.48820        -0.69854
C         41.50891        55.18011        -0.65327
C         42.72871        57.31045        -0.57853
C         41.49992        56.60423        -0.60909
C         43.94383        16.63672         0.02673
C         45.22814        18.77621         0.22982
C         43.98476        18.05739         0.14552
C         45.21262        20.16661         0.48607
C         43.99613        20.90238         0.50327
C         45.20784        23.07096         0.70326
C         43.99351        22.34790         0.59593
C         45.21078        24.48689         0.72001
C         43.97741        25.18034         0.71522
C         45.26256        27.37582         0.93040
C         43.95329        26.63722         0.90844
C         45.24538        28.77831         0.35306
C         43.98333        29.53545         0.66503
C         45.23218        31.66540         0.66913
C         44.00256        30.91127         0.77373
C         45.23916        33.06489         0.73516
C         43.97466        33.78404         0.84782
C         45.26930        35.89637         1.05459
C         43.97821        35.19739         0.92760
C         45.26863        37.41192         1.06117
C         43.96848        38.09757         0.94269
C         45.22648        40.23131         0.67142
C         43.97808        39.52981         0.76508
C         45.20665        41.64655         0.69541
C         43.99468        42.37789         0.64950
C         45.19866        44.55131         0.63442
C         43.98653        43.82316         0.60972
C         45.20812        45.95308         0.45772
C         43.97384        46.65886         0.32546
C         45.20599        48.78840         0.18503
C         43.97046        48.07597         0.16541
C         45.20493        50.18514        -0.10367
C         44.00515        50.88599        -0.36095
C         45.21426        53.04028        -0.62552
C         44.02795        52.30649        -0.61173
C         45.22954        54.48469        -0.60290
C         43.95573        55.20481        -0.63587
C         43.92282        56.62645        -0.56698
C         47.68878        18.79016         0.10722
C         46.48968        18.11592         0.06171
C         47.75997        20.17377         0.42818
C         46.49286        20.84301         0.76418
C         47.75706        23.07942         0.63007
C         46.49188        22.36529         0.88524
C         47.74098        24.48759         0.56807
C         46.48003        25.21176         0.70797
C         47.76801        27.33010         0.77359
C         46.49610        26.58929         0.75228
C         47.76568        28.83973         0.74247
C         46.49292        29.56427         0.61745
C         47.72802        31.67410         0.43214
C         46.48546        30.94595         0.56546
C         47.71537        33.07937         0.37890
C         46.47953        33.79202         0.58824
C         47.69505        35.94624         0.39867
C         46.50716        35.19642         0.66468
C         47.66865        37.36728         0.36268
C         46.49810        38.10985         0.63505
C         47.71404        40.25323         0.37910
C         46.46890        39.52135         0.55142
C         47.74186        41.65896         0.56862
C         46.48530        42.34926         0.89590
C         47.74559        44.56738         0.63954
C         46.47528        43.86293         0.88947
C         47.71827        45.97115         0.57154
C         46.45585        46.67384         0.48620
C         47.67504        48.81305         0.62693
C         46.42687        48.07327         0.39247
C         47.71122        50.29562         0.33701
C         46.49460        50.86305        -0.30435
C         47.75974        53.09869        -0.35638
C         46.51492        52.34998        -0.61051
C         47.67859        54.47400        -0.29994
C         46.44068        55.14985        -0.45543
C         50.23447        20.23617         0.31479
C         48.97169        20.90445         0.44047
C         50.20363        23.05756         0.34827
C         48.97381        22.34857         0.50342
C         50.19538        24.48228         0.28425
C         48.96634        25.19760         0.39016
C         50.17105        27.34809         0.13838
C         49.00010        26.62852         0.39382
C         50.17308        28.80431         0.07913
C         48.99265        29.53638         0.32984
C         50.14916        31.65695        -0.06998
C         48.95341        30.95029         0.22870
C         50.14698        33.09395        -0.08925
C         48.93420        33.80847         0.14574
C         50.14720        35.93980        -0.10923
C         48.92437        35.23355         0.11333
C         50.15466        37.39284        -0.16676
C         48.82976        38.09951        -0.26436
C         50.13558        40.26349        -0.01578
C         48.90634        39.56014         0.09484
C         50.15976        41.68062         0.16789
C         48.94786        42.38749         0.45046
C         50.20153        44.53085         0.42683
C         48.96045        43.83106         0.53411
C         50.21991        45.96514         0.56710
C         48.96706        46.69907         0.60958
C         50.17058        48.87888         0.84816
C         48.94577        48.08956         0.67026
C         50.20655        50.30620         0.44128
C         49.00731        50.98849         0.14511
C         50.26011        53.02104        -0.27667
C         49.01173        52.36711        -0.18662
C         51.41533        20.92033         0.22947
C         52.66476        23.07025         0.11315
C         51.45085        22.35426         0.21997
C         52.66033        24.50779         0.12653
C         51.41652        25.20650         0.13920
C         52.61588        27.31135        -0.26237
C         51.41058        26.62598        -0.01589
C         52.55662        28.71902        -0.79654
C         51.34840        29.50926        -0.31002
C         52.50104        31.66716        -0.84901
C         51.32369        30.91130        -0.37918
C         52.57756        33.11302        -0.63187
C         51.36676        33.81633        -0.28401
C         52.66516        35.99011        -0.20960
C         51.35855        35.22729        -0.24115
C         52.54201        37.36044        -0.87125
C         51.31808        38.10978        -0.38576
C         52.56908        40.26546        -0.47247
C         51.34909        39.55264        -0.32120
C         52.56839        41.68088        -0.32413
C         51.39154        42.39135         0.02037
C         52.65733        44.53992         0.15369
C         51.41450        43.82493         0.19644
C         52.68336        45.95739         0.39526
C         51.44443        46.64891         0.59454
C         52.72995        48.83508         0.55983
C         51.48535        48.09946         0.83170
C         52.71686        50.24883         0.48448
C         51.45133        50.97501         0.32939
C         51.44292        52.33887        -0.03967
C         55.10574        23.08989        -0.08120
C         53.93504        22.41602        -0.13675
C         55.15251        24.50945         0.42910
C         53.87309        25.23884         0.09872
C         55.10340        27.36712        -0.23069
C         53.85960        26.63469        -0.13716
C         55.08091        28.78716        -0.43553
C         53.85495        29.46396        -0.62775
C         55.05281        31.67599        -0.90735
C         53.83528        30.88242        -0.96965
C         55.00785        33.04956        -1.07161
C         53.78596        33.79581        -0.88364
C         55.00409        35.95707        -1.06195
C         53.85216        35.23479        -0.77803
C         55.04379        37.40748        -0.93540
C         53.83672        38.13131        -0.77061
C         55.07271        40.22899        -0.75813
C         53.82514        39.53787        -0.68661
C         55.09185        41.71155        -0.80193
C         53.80108        42.45442        -0.57497
C         55.11233        44.53487        -0.06798
C         53.86642        43.86430        -0.13784
C         55.14533        45.94170         0.25030
C         53.91534        46.65474         0.43076
C         55.16901        48.81380         0.58194
C         53.94352        48.10736         0.52898
C         55.14996        50.21311         0.57897
C         53.95438        50.92021         0.47689
C         57.65767        24.59965         0.04618
C         56.40446        25.27414         0.07909
C         57.57528        27.42953        -0.19477
C         56.35773        26.69030        -0.10008
C         57.56432        28.82713        -0.43517
C         56.32234        29.50304        -0.50129
C         57.61292        31.69064        -0.76625
C         56.30850        30.97060        -0.58826
C         57.57391        33.05891        -1.38113
C         56.24794        33.76433        -1.46393
C         57.56167        35.99345        -1.46842
C         56.22328        35.26049        -1.52992
C         57.54697        37.41949        -1.09315
C         56.28938        38.11050        -0.97544
C         57.56741        40.29055        -1.11817
C         56.27893        39.53105        -0.87030
C         57.55975        41.70844        -0.59011
C         56.36370        42.41686        -0.53001
C         57.58528        44.50949        -0.10904
C         56.34781        43.82108        -0.23650
C         57.59670        45.92375         0.11902
C         56.38296        46.62124         0.33255
C         57.70782        48.75609         0.44720
C         56.44124        48.04263         0.84719
C         58.84463        25.27500        -0.01926
C         60.05777        27.41583        -0.50259
C         58.88016        26.76140         0.15885
C         60.02173        28.71796        -0.84631
C         58.82284        29.52713        -0.69183
C         60.04617        31.66643        -1.16654
C         58.85743        30.90562        -0.90375
C         60.04142        33.03811        -1.27644
C         58.84097        33.82490        -1.32657
C         60.02003        35.98008        -1.10819
C         58.82363        35.22145        -1.32017
C         59.99624        37.33363        -0.91982
C         58.77081        38.08774        -0.89505
C         59.95072        40.19773        -0.35908
C         58.79669        39.51114        -0.71792
C         59.98027        41.59565        -0.24717
C         58.80976        42.36600        -0.35387
C         60.03561        44.52536        -0.14154
C         58.82725        43.80339        -0.19007
C         60.04199        45.91519        -0.02815
C         58.84490        46.62504         0.11273
C         58.84051        48.07190         0.18682
O         35.81080        20.43503        -1.33146
O         54.34539        42.25682        -1.94968
O         56.85681        33.13436        -2.65213
O         57.01276        31.62850         0.56805
O         50.87230        48.55325         2.09250
O         45.41340        36.65516         2.31190
O         35.17745        36.62458         2.58827
O         30.84772        41.99366         1.93727
O         46.69279        51.33049        -1.67229
O         47.91310        28.11480         2.03095
O         46.52128        21.51363         2.07938
O         46.50968        43.10991         2.15818
O         47.50671        49.84060         1.70322
O         38.59355        27.05948        -1.62043
O         41.35114        39.03611         2.22202
O         56.82749        35.78336        -2.73949
O         33.09060        37.87123         2.22258
O         44.56760        27.13339         2.17673
O         24.62272        30.12464        -3.15472
O         53.00105        31.21371        -2.15203
O         52.95798        36.23569         1.19818
H         52.95331        35.37473         1.66614
O         42.70069        52.91380        -2.47379
H         43.54799        53.27399        -2.81319
O         59.06239        26.96946         1.61697
H         58.29071        26.55740         2.06249
O         26.79384        42.45832        -1.99630
H         26.01021        42.95259        -2.31955
O         34.10244        26.27200        -1.93232
H         34.16566        27.09668        -2.45769
O         31.84281        39.59184        -1.38879
H         31.05524        39.17661        -1.80500
O         42.65902        31.51162         2.64133
H         42.75854        30.56355         2.87416
O         45.24801        28.53219        -1.10759
H         45.18234        29.40196        -1.55677
O         56.50302        47.92861         2.31908
H         57.30127        47.40076         2.53452
O         55.18868        24.40285         1.90997
H         54.37123        23.93214         2.18132
O         57.65825        40.42782        -2.58380
H         56.86917        40.93138        -2.87956
O         48.51612        38.07130        -1.72095
H         49.32335        38.36277        -2.19735
O         28.31740        33.37157        -2.71524
H         27.56774        32.94742        -3.18571
O         34.10446        48.19926         2.25693
H         33.30922        47.72812         2.58650
O         34.21812        25.68158         1.67225
H         34.16323        24.85592         2.19732
O         52.35912        28.56489        -2.25206
H         52.45390        29.47242        -2.63626
O         40.37499        39.98217        -1.18778
H         39.56480        40.38618        -1.58489
O         37.82016        41.43292        -1.38197
H         37.71695        42.32785        -1.77227
O         36.79699        34.71956         2.80371
H         36.44211        35.46912         3.33901
O         52.31403        37.11907        -2.29192
H         52.49799        37.94941        -2.77861
H         22.23680        26.60100        -1.55905
H         22.48388        28.69515        -2.93338
H         22.48247        31.57328        -3.05394
H         22.24803        33.78956        -1.94937
H         22.11421        35.41269        -0.89149
H         22.05932        37.79766        -0.41742
H         22.03478        39.69117        -0.09101
H         22.02609        42.11868         0.02804
H         22.01912        44.01796        -0.25592
H         22.01320        46.47528        -0.12793
H         25.34549        23.72312         0.54842
H         23.29594        24.83666        -0.23102
H         25.33534        49.87077         0.20531
H         23.22805        48.62444         0.07972
H         26.98276        22.73146         0.67786
H         26.97673        50.81160         0.14035
H         29.06203        21.49296         0.81808
H         29.07618        52.01522         0.10445
H         32.77857        19.25334         0.56389
H         30.68442        20.49326         0.68409
H         32.81488        54.11801        -0.22941
H         30.70893        52.93465        -0.09884
H         34.47473        18.28434         0.83094
H         34.43007        55.03726        -0.34966
H         36.57165        17.08328         0.70080
H         36.51965        56.22929        -0.60021
H         40.27313        14.86465        -0.02822
H         38.13699        16.08575         0.05558
H         40.25896        58.39807        -0.59022
H         38.13334        57.17098        -0.58043
H         42.74022        14.85853        -0.07056
H         42.71736        58.40934        -0.54916
H         44.87940        16.06430        -0.02227
H         44.85854        57.19849        -0.52486
H         48.60976        18.23209        -0.10908
H         46.50827        17.04355        -0.17205
H         48.57802        55.07824        -0.11827
H         46.46423        56.24594        -0.40768
H         50.26297        19.13833         0.31686
H         50.30331        54.08245        -0.55624
H         52.35373        20.35340         0.16620
H         52.38927        52.88407        -0.15106
H         56.04072        22.55665        -0.30256
H         53.94078        21.35585        -0.42799
H         56.08503        50.78331         0.65409
H         53.99504        52.01691         0.45112
H         57.67670        23.50095         0.07503
H         57.74710        49.85229         0.51020
H         59.79675        24.72432        -0.02141
H         60.97854        26.82786        -0.63227
H         60.91832        29.18605        -1.27688
H         61.01422        31.14873        -1.20891
H         61.01016        33.54533        -1.38536
H         60.98721        35.46055        -1.08244
H         60.95076        37.85753        -0.78187
H         60.87685        39.64904        -0.13966
H         60.93658        42.07548        -0.00142
H         60.99581        44.00094        -0.23330
H         60.99633        46.46087        -0.04059
H         59.78596        48.60325        -0.00039
