         324
 CSIRO Nanostructure Databank - Neutral Graphene Oxide Data Set
C          1.11188         3.35588        -0.30307
C         -0.00657         4.05675        -0.60063
C          1.12138         6.24117        -0.51273
C         -0.03672         5.50438        -0.57401
C          1.17523         7.69341        -0.57902
C         -0.01175         8.47062        -0.62413
C          1.23762        10.57115        -0.86108
C          0.01300         9.84644        -0.73558
C          1.25228        12.00246        -0.96031
C          0.11124        12.79117        -0.64439
C          1.20594        14.99877        -1.17419
C          0.09963        14.16297        -0.65426
C          1.03404        16.53554        -1.07659
C         -0.02584        17.13059        -0.21153
C          1.01339        19.37606        -0.47630
C          0.02437        18.42196         0.16368
C          1.12141        20.76093         0.11042
C         -0.08515        21.46179         0.33186
C          1.10221        23.57495         0.48163
C         -0.10161        22.83324         0.51479
C          1.11905        25.01959         0.46430
C         -0.06845        25.80408         0.60072
C          1.12023        27.89334         0.17760
C         -0.05587        27.18994         0.50828
C          1.19157        29.31021         0.09244
C          3.63534         3.33259         0.07534
C          2.33370         4.09963         0.18126
C          3.62131         6.24763        -0.13933
C          2.41607         5.44733        -0.57119
C          3.67405         7.68576        -0.50035
C          2.42381         8.39722        -0.63518
C          3.74727        10.48352        -0.91201
C          2.44493         9.80491        -0.83797
C          3.80058        11.99613        -1.06230
C          2.50234        12.73190        -1.28822
C          3.81900        14.86188        -0.87989
C          2.53527        14.24150        -1.35692
C          4.00480        16.20870        -1.03241
C          2.20156        17.43788        -1.25702
C          3.65710        19.35193        -0.51508
C          2.33812        18.67263        -0.70201
C          3.62905        20.75789         0.00448
C          2.34448        21.44441         0.16938
C          3.56696        23.57607         0.45765
C          2.33768        22.86208         0.39765
C          3.58519        24.96846         0.27775
C          2.34870        25.67400         0.22290
C          3.67101        27.85150        -0.11167
C          2.33212        27.10939        -0.08367
C          3.66541        29.32764         0.03421
C          2.39032        29.99033        -0.00604
C          6.11558         3.32301         0.23121
C          4.86080         3.98042         0.11483
C          6.16718         6.13300        -0.18208
C          4.86950         5.47302         0.10944
C          6.17890         7.61520        -0.40741
C          4.89707         8.35835        -0.42387
C          6.14803        10.46921        -0.17267
C          4.95011         9.77439        -0.43689
C          6.07062        11.93394         0.17123
C          4.93650        12.69624        -0.46412
C          6.10022        14.77481         0.12227
C          4.91588        14.08968        -0.30543
C          6.04674        16.21270         0.40908
C          4.88311        17.01229        -0.18747
C          6.04140        19.13977         0.53490
C          4.91583        18.51831        -0.26372
C          6.00661        20.61970         0.73593
C          4.79224        21.39300         0.36326
C          6.09423        23.54603         0.55441
C          4.79849        22.82003         0.87038
C          6.09311        24.90899         0.34413
C          4.85885        25.68291         0.24424
C          6.12238        27.82587         0.42322
C          4.87622        27.07114         0.18552
C          6.14210        29.35512         0.31315
C          4.84888        30.02841         0.11995
C          8.59570         3.32530         0.47018
C          7.36358         4.02556         0.34597
C          8.67221         6.16288        -0.10313
C          7.38902         5.44059         0.20448
C          8.59623         7.66048         0.11748
C          7.42959         8.34823        -0.09576
C          8.61108        10.52052         0.10971
C          7.37169         9.79217         0.01144
C          8.59570        11.96319         0.03355
C          7.37771        12.66402         0.04060
C          8.59606        14.77844         0.22919
C          7.36228        14.07869         0.14508
C          8.62178        16.20627         0.59240
C          7.31180        16.95062         0.71680
C          8.55807        19.07726         0.66183
C          7.34901        18.41885         0.58463
C          8.59331        20.53696         0.90969
C          7.30373        21.34283         0.98724
C          8.56060        23.44733         0.71449
C          7.34739        22.81308         0.71350
C          8.70638        24.86241         0.19898
C          7.37705        25.61274         0.07302
C          8.62507        27.88062         0.31740
C          7.39050        27.11533         0.11736
C          8.63960        29.28946         0.08832
C          7.41165        29.98228        -0.04171
C         11.14209         3.37995         0.83016
C          9.83338         4.00937         0.80515
C         11.13714         6.26175         0.46931
C          9.84252         5.56732         0.64115
C         11.11680         7.66125         0.34939
C          9.82219         8.38955         0.61907
C         11.06964        10.54369         0.09910
C          9.83375         9.84244         0.21404
C         11.06204        11.96804        -0.05098
C          9.82707        12.67800        -0.01023
C         11.06214        14.83924         0.00856
C          9.82385        14.10468         0.06289
C         11.07341        16.26988         0.15330
C          9.86031        16.97750         0.39341
C         11.07027        19.10712         0.47391
C          9.83311        18.38023         0.52438
C         11.07928        20.56438         0.61986
C          9.87523        21.24333         0.73741
C         11.09328        23.43791         1.20562
C          9.81166        22.69803         1.01596
C         11.10085        24.95251         1.14787
C          9.81276        25.67726         0.89469
C         11.15108        27.88497         0.38978
C          9.84975        27.17462         0.66088
C         11.13546        29.27913        -0.12469
C          9.89258        29.95959        -0.11939
C         13.60055         3.45787         0.91341
C         12.35022         4.10687         0.76999
C         13.57157         6.24460         0.33457
C         12.34707         5.53868         0.52768
C         13.54422         7.66526         0.19121
C         12.33302         8.38619         0.24570
C         13.50957        10.57613        -0.02644
C         12.31538         9.84334         0.14535
C         13.48552        11.96251        -0.29451
C         12.27561        12.69055        -0.23464
C         13.48591        14.87387        -0.38116
C         12.27380        14.14146        -0.23818
C         13.53219        16.27195        -0.14180
C         12.30579        16.98899         0.13442
C         13.56547        19.13032         0.45168
C         12.28235        18.40198         0.33330
C         13.57064        20.61262         0.47633
C         12.35575        21.27280         0.67388
C         13.70594        23.45875         0.97129
C         12.38929        22.68869         1.08349
C         13.66953        24.92495         0.76329
C         12.35993        25.60066         0.63565
C         13.62396        27.72412        -0.02598
C         12.34302        27.01757         0.13539
C         13.61561        29.09228        -0.67443
C         12.34081        29.86977        -0.48999
C         16.08581         3.51193         0.94567
C         14.82751         4.15317         0.75611
C         16.06338         6.18861         0.04542
C         14.80356         5.53188         0.39203
C         16.07556         7.69132        -0.15990
C         14.82055         8.40342         0.20227
C         16.06339        10.59476        -0.32473
C         14.81779         9.90640         0.09998
C         16.00910        11.93513        -0.66312
C         14.71480        12.63581        -0.73837
C         15.99466        14.88470        -0.83457
C         14.70496        14.16919        -0.81826
C         15.94950        16.29997        -0.70512
C         14.77263        16.96926        -0.30722
C         16.00505        19.21986        -0.30351
C         14.84317        18.39625         0.07869
C         16.00734        20.57890        -0.07124
C         14.82728        21.31468         0.35165
C         16.05144        23.49708         0.17632
C         14.89245        22.72860         0.48397
C         16.08780        24.90911         0.27947
C         14.83165        25.62106         0.48202
C         16.03755        27.83388         0.34771
C         14.78989        27.05845         0.21750
C         16.02195        29.28432         0.04337
C         14.83825        29.89684        -0.33777
C         18.57759         3.55510         1.09182
C         17.31220         4.20231         0.79347
C         18.60372         6.25168        -0.00161
C         17.32486         5.53478         0.34724
C         18.54345         7.76559         0.15000
C         17.34553         8.44581        -0.01601
C         18.53299        10.57424        -0.24896
C         17.31352         9.87675        -0.19967
C         18.56739        11.96610        -0.72326
C         17.22195        12.69277        -1.00907
C         18.46750        14.85468        -0.96827
C         17.21835        14.17744        -0.96278
C         18.47788        16.30849        -1.23884
C         17.13877        17.06160        -1.12306
C         18.48334        19.25470        -1.05036
C         17.15243        18.55512        -0.96932
C         18.57671        20.64665        -0.50834
C         17.29764        21.32460        -0.14938
C         18.53142        23.55999        -0.56382
C         17.23685        22.80160        -0.33938
C         18.53107        24.99844        -0.22873
C         17.31733        25.62584         0.09441
C         18.56836        27.85249         0.06215
C         17.34681        27.08391         0.34560
C         18.50777        29.28041         0.07052
C         17.26180        29.97041         0.09877
C         19.75344         4.25202         1.04835
C         20.94141         6.40158         0.85758
C         19.80485         5.63312         0.66572
C         20.94748         7.79389         0.62105
C         19.77440         8.49702         0.30867
C         20.89883        10.74698         0.30100
C         19.75459         9.93892         0.13003
C         20.87383        12.12991         0.08841
C         19.75165        12.78124        -0.43989
C         20.90995        14.95426        -0.73511
C         19.70774        14.19162        -0.72804
C         20.92515        16.32593        -0.91248
C         19.74127        17.07029        -1.11456
C         20.93400        19.25632        -1.20706
C         19.75214        18.49206        -1.14410
C         20.94923        20.65785        -1.14341
C         19.81044        21.41465        -0.83103
C         20.99222        23.59056        -0.57875
C         19.81857        22.82890        -0.64299
C         20.96537        24.98303        -0.43075
C         19.77457        25.71067        -0.26224
C         20.96389        27.93577        -0.31344
C         19.78474        27.17297        -0.16057
C         20.92456        29.33303        -0.24581
C         19.72224        30.00532        -0.06892
O         17.66126        16.64588        -2.41153
O         18.21258        20.84633         0.91037
O          2.54430        13.45557        -2.57903
O         10.28106        25.44027         2.24962
O          4.87487        16.57981         1.21532
O         16.00904         6.85306        -1.34218
O          4.09866        11.13010        -2.21143
O          4.12189         6.04981         1.24755
O         13.22758        22.95558         2.26015
O         14.44854        18.57479         1.49122
O         10.34411        22.97252         2.37164
O          7.99368        16.45770         1.91194
O          3.00797        27.43082        -1.35284
O         18.02510        12.13029        -2.07851
O         17.58916        19.21383        -2.21089
O          7.95980        20.92289         2.20575
O          7.31969        26.38165        -1.18665
O         14.98839         9.22977         1.40566
O          4.68561        19.12754        -1.55489
O          9.59650         5.01575         1.90527
O         16.70870        27.49893         1.61038
O          6.26660         6.69890        -1.57542
O         17.62380        23.22712        -1.68778
O         12.11504        25.93188        -0.82524
O         10.62876        27.83076         1.74178
O         14.51170        13.33609        -2.01495
O          5.64554        19.68487         1.83357
O          6.17831        28.61377         1.62857
O          0.68099        15.81040        -2.29196
O          3.25292        16.87336        -1.99062
O          0.47171        19.64684        -1.81496
H          0.42503        18.79876        -2.30708
O          2.10916         4.33400         1.59667
H          2.85512         4.90026         1.91608
O          9.22713        24.67317        -1.15040
H          8.74209        25.30511        -1.73601
O          2.64491         5.11087        -1.96783
H          2.62052         5.93747        -2.49401
O          9.71383         8.38948         2.09223
H          8.93339         8.93370         2.33231
O         18.77175         6.03485        -1.45463
H         17.92425         6.32080        -1.87328
O          5.75076        11.93206         1.62541
H          5.83865        12.85784         1.94260
O         13.70838        28.79328        -2.12974
H         13.09438        28.05183        -2.32289
O          8.94790         5.95890        -1.52818
H          8.12350         6.23092        -2.00376
O          4.72971        22.73657         2.33374
H          5.36777        22.05298         2.63568
H          1.10621         2.25578        -0.29658
H         -0.93699         3.53153        -0.86287
H         -1.01882         5.99452        -0.64059
H         -0.98740         7.96890        -0.56733
H         -0.94338        10.38492        -0.76866
H         -0.81285        12.28311        -0.33424
H         -0.85486        14.66204        -0.43920
H         -0.81693        16.48361         0.19312
H         -0.74526        18.81919         0.84285
H         -1.03654        20.91396         0.28440
H         -1.06684        23.34615         0.61939
H         -1.02089        25.30389         0.82107
H         -0.98566        27.75265         0.67654
H          0.25557        29.88385         0.16382
H          3.60442         2.23342         0.14207
H          2.38440        31.09005        -0.01669
H          6.13086         2.22385         0.27697
H          4.83181        31.12836         0.08362
H          8.61951         2.23894         0.30015
H          7.40720        31.02521        -0.38932
H         11.18743         2.28257         0.76253
H          9.87300        31.02721        -0.38369
H         13.62306         2.38674         1.16130
H         12.34153        30.91839        -0.82474
H         16.10362         2.45272         1.24104
H         14.82981        30.97592        -0.55361
H         18.56510         2.50441         1.41460
H         17.26882        31.06492        -0.01561
H         20.68903         3.76682         1.36578
H         21.85435         5.92685         1.24760
H         21.89195         8.33717         0.76010
H         21.83808        10.29650         0.64870
H         21.78312        12.70244         0.31730
H         21.86823        14.44122        -0.58123
H         21.89039        16.84764        -0.86246
H         21.89394        18.74730        -1.37029
H         21.90619        21.16920        -1.31884
H         21.96903        23.09258        -0.65175
H         21.92785        25.51131        -0.42126
H         21.92993        27.44224        -0.48204
H         21.85746        29.90332        -0.35533
H         19.69800        31.10403        -0.05030
