         280
 CSIRO Nanostructure Databank - Neutral Graphene Oxide Data Set
C        -11.33285         0.62846         0.11748
C        -10.14811         1.43654         0.42079
C         -8.98242         0.74930         1.06013
C         -7.61138         1.35086         0.65883
C         -6.42249         0.49903         1.15175
C         -5.09009         1.28113         0.97870
C         -3.80661         0.55303         0.73126
C         -2.60979         1.37614         0.22378
C         -1.30121         0.57956         0.56495
C         -0.03580         1.33408         0.18553
C          1.12848         0.69300        -0.10856
C          2.41973         1.44147        -0.47136
C          3.69548         0.66140        -0.15231
C          4.97889         1.45866        -0.14593
C          6.18913         0.70404         0.32716
C          7.30060         1.35469         0.76013
C          8.63423         0.68668         0.87649
C          9.92612         1.46286         0.70136
C         11.18043         0.67731         0.48265
C        -10.06542         2.79238         0.36457
C         -8.91934         3.59554         0.97450
C         -7.63222         2.76726         1.22454
C         -6.32510         3.47988         1.30196
C         -5.11515         2.79486         0.66248
C         -3.78344         3.46794         0.97831
C         -2.61690         2.80347         0.77301
C         -1.31778         3.53255         0.81037
C         -0.05541         2.78920         0.50622
C          1.14670         3.54146         0.03667
C          2.44394         2.79912         0.26595
C          3.69912         3.61305         0.03406
C          4.89784         2.91206         0.23846
C          6.09989         3.59111         0.53137
C          7.03227         2.72652         1.36125
C          8.98509         3.77280         0.71642
C          9.88632         2.87802         0.23519
C         -8.55042         4.78543         0.09219
C         -7.38947         5.47335         0.26027
C         -6.42135         5.01302         1.33473
C         -5.06205         5.71216         1.30269
C         -3.77325         4.94121         1.22365
C         -2.52507         5.68936         0.89519
C         -1.34276         5.02121         0.67835
C         -0.09803         5.76158         0.43391
C          1.12585         5.02081         0.01068
C          2.42997         5.75623        -0.14494
C          3.72174         5.02226        -0.01719
C          4.96588         5.70414         0.09118
C          6.17787         5.00460         0.38337
C          7.47138         5.72223         0.31601
C          8.71086         5.13884         0.29181
C         -7.09275         6.69092        -0.46992
C         -6.05756         7.52088        -0.14691
C         -5.10931         7.20598         0.98431
C         -3.75827         7.83468         0.75523
C         -2.58354         7.14614         0.81690
C         -1.28558         7.92345         0.92704
C         -0.05776         7.11681         0.59557
C          1.24414         7.87071         0.76598
C          2.41558         7.23803         0.02814
C          3.71506         7.97382         0.11559
C          4.98795         7.19367         0.07804
C          6.22230         7.89285         0.62190
C          7.45236         7.20974         0.00895
C         -5.90269         8.82058        -0.77848
C         -4.91612         9.67865        -0.44837
C         -3.78150         9.33281         0.48971
C         -2.47502         9.82269        -0.10727
C         -1.30505         9.20474         0.11212
C          0.00614         9.76748        -0.41471
C          1.17480         9.32702         0.41553
C          2.43470        10.15215         0.38742
C          3.71792         9.35818         0.76285
C          5.00052        10.06255         0.36841
C          6.15546         9.38276         0.31971
C        -11.35024        -0.71992        -0.09267
C        -10.17583        -1.53903        -0.38049
C         -8.93883        -0.81420        -0.80210
C         -7.67380        -1.46397        -0.24007
C         -6.46558        -0.90147         0.47600
C         -5.15004        -1.68000         0.38306
C         -3.76163        -0.99970         0.62981
C         -2.62693        -1.50375        -0.30121
C         -1.33229        -0.77882        -0.13450
C         -0.05472        -1.56404        -0.09246
C          1.24229        -0.79917         0.15100
C          2.46020        -1.40993        -0.52753
C          3.72403        -0.69339        -0.21079
C          4.94316        -1.51878         0.13888
C          6.21961        -0.72469        -0.06541
C          7.49079        -1.46243         0.06087
C          8.70964        -0.83990         0.70648
C          9.92545        -1.37524        -0.10979
C         11.19665        -0.64311         0.24831
C        -10.12289        -2.89440        -0.50986
C         -8.92497        -3.59444        -1.15157
C         -7.61761        -2.77049        -0.99876
C         -6.34394        -3.51752        -1.08436
C         -5.16581        -3.05260        -0.23651
C         -3.87826        -3.73645        -0.60743
C         -2.61718        -2.95390        -0.73363
C         -1.29755        -3.70363        -1.06164
C         -0.03775        -2.96976        -0.58455
C          1.24631        -3.62739        -1.02627
C          2.52134        -2.82267        -1.00529
C          3.84199        -3.56773        -1.03689
C          5.04434        -2.90570        -0.46772
C          6.26391        -3.59162        -0.32901
C          7.46695        -2.93555         0.01628
C          8.74431        -3.61740         0.06527
C          9.93581        -2.88119         0.06541
C         -8.72026        -5.03683        -0.65050
C         -7.59627        -5.75709        -0.97606
C         -6.56067        -4.92699        -1.66887
C         -4.83310        -5.87505         0.45544
C         -3.80215        -5.26120        -0.47537
C         -2.44870        -5.80505        -0.01123
C         -1.20820        -5.07862        -0.39847
C          0.03854        -5.86279        -0.56669
C          1.24860        -5.12630        -1.02362
C          2.54385        -5.86745        -1.11398
C          3.83908        -5.08738        -1.13132
C          5.02040        -5.74779        -0.45304
C          6.36169        -5.06785        -0.67507
C          7.52536        -5.78084         0.00136
C          8.72906        -5.04692         0.14248
C         -7.36430        -7.16826        -0.64522
C         -6.32350        -8.00209        -1.05141
C         -4.69442        -7.19048         0.84082
C         -3.57507        -7.97728         0.42803
C         -2.40078        -7.29013         0.08113
C         -1.17260        -7.96331        -0.09385
C          0.04246        -7.22877        -0.32079
C          1.34758        -7.96084        -0.08839
C          2.53646        -7.31386        -0.76967
C          3.84768        -8.00280        -0.52621
C          4.96115        -7.16538         0.02490
C          6.18746        -7.86932         0.61274
C          7.47231        -7.13283         0.30996
C         -6.11032        -9.38421        -0.51891
C         -4.98992       -10.00257        -0.08021
C         -3.65359        -9.47256         0.46975
C         -2.39497       -10.10803        -0.07487
C         -1.18370        -9.42212        -0.15844
C          0.05642       -10.11080        -0.36900
C          1.31263        -9.46152        -0.34868
C          2.51952       -10.15967        -0.40132
C          3.83648        -9.48411        -0.38508
C          5.08719       -10.10205         0.13205
C          6.18403        -9.37244         0.40548
O          2.23589         6.68494        -1.28546
O          7.03373        -0.93763        -1.26325
O         -3.96477        10.05701         1.72902
H         -3.25108         9.77446         2.34020
O         -5.74380        -7.71634         1.65028
O          2.40347        -6.90514        -2.14939
O         -6.92530         2.88963         2.49561
O          2.57879        10.73764        -0.91305
H          2.24533        10.09638        -1.57930
O          0.91323         4.19752        -1.22434
O         -5.31223        -2.89099         1.18856
O          8.64842         7.79810         0.52906
H          8.74782         8.69536         0.15175
O          4.57486        -6.06097         0.91352
O         -1.71547        -5.05915         0.99281
O         -0.43046         3.04823         1.90740
O         -7.01000         5.38667         2.61122
O         -7.42186         1.49571        -0.75352
H         -8.24165         1.83552        -1.17370
O          1.62307        -7.80248         1.33771
O         -0.12541        -2.69788         0.84037
O          6.45124         2.33720        -1.84615
H          6.14152         3.06748        -2.43579
O         -4.33075         5.38401         2.52598
O          6.24425         7.70442         2.05786
H          7.17614         7.81367         2.34905
O          6.23808         2.50854         2.58214
O          0.20823         9.29736        -1.77469
H         -0.58705         9.52906        -2.29772
O          4.10463        -4.29425        -2.31064
O         -7.03131         8.08038         2.14483
H         -7.37447         7.19508         2.45057
O          4.20865        -8.80531        -1.68661
O          1.07368        -4.35173        -2.26937
O         -6.77220        -2.61967        -2.17837
O         -1.18230         8.33668         2.33677
H         -1.39557         7.55237         2.88756
O         -3.49478        -3.19537        -1.90020
O         -6.07302        -5.22159        -2.74835
O          8.19637         3.39915         1.81685
O         -6.54915         0.21882         2.54269
H         -6.59498         1.07596         3.02486
O         -3.91620        -5.81441        -1.80422
H         -3.56429        -5.13621        -2.43006
O         -8.95514        -0.05057        -1.75351
O          9.39202         1.16415         2.04456
O          4.48215         7.85953        -1.12127
O          3.72971         9.21424         2.19637
H          4.54197         8.71179         2.44488
O         -9.22452        -3.66113        -2.56719
H         -8.38988        -3.46952        -3.05500
O          8.78568        -1.40359         2.03134
H          9.25585        -0.74770         2.59567
O          2.39426         1.70300        -1.88460
H          2.59175         0.86942        -2.36266
O          2.37330        -1.69238        -1.95538
O         -5.60344         7.90982         2.23054
H         -6.31561         5.23001         3.29224
O          9.75239        -1.08603        -1.52158
H          8.88650        -1.44001        -1.82292
O         -3.68439        -9.89724         1.88018
H         -4.13279        -9.18581         2.40044
O          6.65131        -5.18426        -2.09135
H          5.90309        -4.76306        -2.58236
O         -5.19328        -7.82363         3.03424
H         -5.93721        -8.27495         3.50384
O          5.24824         1.55553        -1.67052
O         -4.17625         0.97842         2.07330
O          4.83999        -1.74251         1.58398
H          4.80373        -0.87497         2.04018
O         -5.51355        -7.76090        -2.08377
H         -5.69170        -6.88406        -2.51177
O         -9.42044         4.09286         2.22925
H         -8.65859         4.52477         2.68996
O         -2.06759        -0.71168        -1.39321
O         -9.13341        -0.03966         1.96919
O         -1.29171        -3.92538        -2.46945
H         -1.38321        -3.06916        -2.93589
O         -2.78785         1.58678        -1.19951
H         -1.91494         1.67735        -1.63743
O         -3.31344        -1.47619         1.90547
H         -3.82297        -0.99885         2.59871
O          6.10100        -7.74583         2.06939
H          5.67655        -6.87355         2.25077
O         -7.50026        -1.68755         1.16542
O          1.53174        -0.87473         1.56910
H          0.69619        -0.68647         2.05696
O          2.43246         2.51434         1.68881
H          3.31879         2.20024         1.96724
O         -5.27930         2.99314        -0.76171
H         -4.53714         2.53209        -1.22297
H          0.87205        -8.18660         1.83783
O         -5.90171        -5.20616         0.92600
H         -6.36422        -5.80999         1.55383
O         -1.23970         0.36527         1.98443
H         -1.05758         1.24182         2.40473
O          6.98060         1.56209         3.39832
H          7.90445         1.92591         3.36815
O          1.56884         7.70108         2.18119
H          0.89087         8.20617         2.68635
H         12.15617        -1.17560         0.15718
H         12.12635         1.22000         0.63943
H         10.53583         3.14783        -0.60870
H          9.56570         5.78103         0.02397
H          7.42042         7.36048        -1.10931
H          7.09348         9.90814         0.07501
H          4.97558        11.14285         0.16094
H          2.35614        11.00842         1.11854
H         -0.05532        10.89229        -0.43555
H         -2.49966        10.77901        -0.65565
H         -4.89245        10.67965        -0.90580
H         -6.67302         9.12227        -1.50484
H         -7.79236         6.98828        -1.26630
H         -9.29030         5.14482        -0.64031
H        -10.91936         3.38226        -0.00729
H        -12.30035         1.15409         0.16134
H        -12.32969        -1.21960        -0.16267
H        -11.01628        -3.50716        -0.30693
H         -9.58509        -5.54609        -0.19691
H         -8.03738        -7.57657         0.12422
H         -7.00285       -10.03023        -0.61664
H         -5.10944       -11.07711         0.14674
H         -2.38513       -11.20570        -0.15960
H          0.02995       -11.20411        -0.49494
H          2.49935       -11.25902        -0.46603
H          5.14757       -11.20181         0.14119
H          7.10729        -9.89084         0.70764
H          8.38938        -7.59936         0.70784
H          9.65740        -5.57971         0.40082
H         10.89731        -3.41779         0.05598
