         204
 CSIRO Nanostructure Databank - Neutral Graphene Oxide Data Set
C        -10.98724         0.71253        -0.82814
C         -9.80115         1.45079        -0.48802
C         -8.58899         0.73407        -0.26388
C         -7.40784         1.45624         0.07016
C         -6.10154         0.72183        -0.05383
C         -4.89164         1.46231         0.44137
C         -3.70260         0.75644         0.60387
C         -2.46542         1.44635         0.59638
C         -1.23040         0.71408         0.59094
C         -0.00514         1.42015         0.44503
C          1.20477         0.70058         0.32481
C          2.45610         1.43894        -0.08607
C          3.67977         0.73199         0.42797
C          4.96559         1.46402         0.59966
C          6.23435         0.70596         0.54732
C          7.52014         1.47457         0.70093
C          8.70530         0.71770         0.15127
C          9.88872         1.43394        -0.18117
C         11.07935         0.67615        -0.49193
C         -9.79197         2.85937        -0.41126
C         -8.63362         3.56396        -0.04177
C         -7.43266         2.83890         0.22917
C         -6.24701         3.52891         0.87829
C         -4.90641         2.88342         0.52415
C         -3.69503         3.57707         0.53987
C         -2.46041         2.86264         0.45468
C         -1.21383         3.54969         0.28750
C         -0.00715         2.86082         0.30326
C          1.25838         3.58801         0.20923
C          2.46504         2.90974         0.21985
C          3.73365         3.60320         0.23146
C          4.95804         2.91998         0.34441
C          6.20764         3.60425         0.18876
C          7.43815         2.90480         0.21826
C          8.65084         3.58334        -0.09111
C          9.86899         2.83821        -0.22937
C         -8.62162         5.01086        -0.04525
C         -7.48259         5.73955         0.20639
C         -6.25822         5.04316         0.69530
C         -4.95793         5.78295         0.65442
C         -3.61936         5.06162         0.84553
C         -2.45079         5.76295         0.18568
C         -1.23339         4.97187        -0.19732
C          0.04942         5.72982         0.01870
C          1.25333         5.03449         0.13533
C          2.50222         5.74054         0.05742
C          3.72962         5.03444         0.09851
C          4.96668         5.73412        -0.04779
C          6.19573         5.01897        -0.04796
C          7.42981         5.71768        -0.26011
C          8.63087         4.98222        -0.31311
C         -7.44359         7.18227         0.11329
C         -6.25880         7.88833         0.06274
C         -4.98644         7.12792        -0.00711
C         -3.70274         7.85023        -0.22707
C         -2.43284         7.11806        -0.02410
C         -1.19838         7.84653        -0.22454
C          0.03721         7.14908        -0.12602
C          1.26831         7.86589        -0.18805
C          2.49940         7.15861        -0.11611
C          3.73396         7.86120        -0.25171
C          4.95995         7.15150        -0.22911
C          6.20577         7.84907        -0.40932
C          7.40263         7.13587        -0.43334
C         -6.16666         9.31849        -0.09554
C         -4.97617         9.98589        -0.24925
C         -3.69309         9.32446        -0.28561
C         -2.48166         9.97643        -0.35935
C         -1.21559         9.26687        -0.35621
C          0.00848         9.96073        -0.43770
C          1.25328         9.28826        -0.36866
C          2.49944         9.97336        -0.47970
C          3.71532         9.28862        -0.43592
C          4.98156         9.96690        -0.58427
C          6.16275         9.28321        -0.57716
C        -10.97103        -0.65270        -0.90588
C         -9.77390        -1.40544        -0.63362
C         -8.57254        -0.69976        -0.32440
C         -7.39052        -1.44166         0.01007
C         -6.15481        -0.74010         0.30570
C         -4.98473        -1.43304         0.55745
C         -3.73312        -0.70349         0.97385
C         -2.46160        -1.44498         0.64798
C         -1.23688        -0.71967         0.59521
C         -0.01085        -1.43488         0.49131
C          1.21707        -0.71275         0.37506
C          2.43915        -1.45648         0.24741
C          3.70525        -0.72080         0.10083
C          5.00557        -1.44494         0.25637
C          6.25306        -0.67536         0.52334
C          7.49721        -1.39557         0.44945
C          8.69457        -0.69532         0.14968
C          9.89543        -1.44436        -0.16502
C         11.08150        -0.69089        -0.48128
C         -9.76991        -2.81257        -0.66126
C         -8.60776        -3.54896        -0.32889
C         -7.42270        -2.84092         0.04631
C         -6.26241        -3.60880         0.63215
C         -4.95252        -2.86833         0.56489
C         -3.74192        -3.56111         0.57515
C         -2.47617        -2.84412         0.58989
C         -1.24121        -3.57513         0.53095
C         -0.00609        -2.86437         0.47330
C          1.22324        -3.58229         0.36200
C          2.45564        -2.85090         0.24262
C          3.72218        -3.56745         0.22360
C          4.93202        -2.89858         0.41476
C          6.16544        -3.64906         0.62378
C          7.53327        -2.84681         0.59418
C          8.71554        -3.59577         0.14809
C          9.87736        -2.84161        -0.18959
C         -8.57832        -4.97059        -0.41371
C         -7.37913        -5.70576        -0.24874
C         -6.17165        -5.03263         0.14945
C         -4.96392        -5.72195         0.23921
C         -3.71705        -5.00721         0.49897
C         -2.50787        -5.69435         0.57495
C         -1.24075        -4.99972         0.57369
C          0.00005        -5.70086         0.55429
C          1.22426        -5.00508         0.38869
C          2.46970        -5.72281         0.13018
C          3.71601        -4.99657         0.07128
C          4.95166        -5.67056        -0.08410
C          6.18774        -5.04225         0.20255
C          7.43153        -5.72688         0.05408
C          8.65294        -4.99427         0.04184
C         -7.33451        -7.09719        -0.52124
C         -6.13581        -7.81740        -0.41648
C         -4.93107        -7.13573        -0.03748
C         -3.73518        -7.86523         0.10827
C         -2.53685        -7.17516         0.61344
C         -1.24430        -7.94768         0.67523
C          0.03608        -7.17020         0.72588
C          1.31154        -7.90706         0.39122
C          2.46850        -7.10779        -0.02746
C          3.63914        -7.82257        -0.53078
C          4.97366        -7.06067        -0.54334
C          6.22723        -7.82576        -0.44043
C          7.40882        -7.14421        -0.18703
C         -6.07065        -9.22799        -0.67036
C         -4.89015        -9.91741        -0.55414
C         -3.68104        -9.25689        -0.15975
C         -2.43652        -9.95723        -0.13660
C         -1.22459        -9.33463         0.15347
C          0.02648        -9.98917        -0.07595
C          1.25324        -9.34074        -0.00263
C          2.49102        -9.99917        -0.28947
C          3.67804        -9.29841        -0.46249
C          4.95259        -9.93599        -0.63519
C          6.14685        -9.25032        -0.61639
O         -4.42768         7.18037        -1.36102
O         -6.42505         3.26626         2.30113
H         -6.08177         4.05171         2.78511
O         -6.56723        -3.70681         2.08248
H         -7.42138        -4.18299         2.16395
O          6.92029        -3.33280         1.82969
O         -5.74226         5.76200         1.89072
O          2.52923         1.33760        -1.54528
H          1.72379         1.75555        -1.91695
O          4.09258         1.07094         1.76994
O         -3.78097        -0.69370         2.45075
H         -3.93627        -1.61716         2.74503
O          4.20827        -7.28975        -1.77168
O          4.47037        -1.05612        -1.09447
O          7.76505         1.58310         2.16093
H          7.72545         0.67524         2.53134
O         -3.28545         5.14456         2.26718
H         -4.13827         5.21236         2.75709
O         -1.34057         4.82753        -1.67475
H         -1.48918         5.72461        -2.04534
O         -2.04958        -7.76044         1.88380
O         -5.87664         0.69904        -1.52545
H         -6.64789         0.24561        -1.92987
O          0.92461        -7.64024         1.79337
H         12.00333        -1.24205        -0.71939
H         11.99861         1.22632        -0.74170
H         10.79366         3.38138        -0.47644
H          9.57590         5.50542        -0.52336
H          8.35198         7.67112        -0.58666
H          7.11329         9.82266        -0.70326
H          4.97719        11.05915        -0.71630
H          2.49756        11.06484        -0.62114
H         -0.00202        11.05516        -0.55299
H         -2.45766        11.07640        -0.40272
H         -4.98897        11.08179        -0.34988
H         -7.10390         9.89543        -0.08720
H         -8.40066         7.71993         0.02568
H         -9.54252         5.53426        -0.34454
H        -10.71359         3.41725        -0.63557
H        -11.91685         1.26769        -1.02159
H        -11.88863        -1.20318        -1.16067
H        -10.68907        -3.35169        -0.93509
H         -9.49103        -5.50315        -0.71977
H         -8.25673        -7.61534        -0.82390
H         -6.99111        -9.75371        -0.96360
H         -4.85863       -10.99707        -0.76139
H         -2.42874       -11.01035        -0.45766
H          0.00315       -11.04250        -0.39610
H          2.49534       -11.09728        -0.37084
H          4.97013       -11.03371        -0.71088
H          7.08833        -9.81678        -0.67616
H          8.36050        -7.69715        -0.17215
H          9.57638        -5.54070        -0.20481
H         10.78920        -3.38349        -0.48396
