         720
 CSIRO Nanostructure Databank - Neutral Graphene Oxide Data Set
C         23.47880        27.53115         2.62837
C         23.35354        28.87102         2.24300
C         23.02141        31.70668         1.03501
C         22.92521        32.95647         0.55779
C         23.04405        35.90373         0.69156
C         23.04617        37.32871         0.69668
C         22.93668        40.26996         0.36908
C         22.95673        41.69826         0.43213
C         22.94615        44.68359         0.23633
C         22.96422        46.03312         0.22402
C         25.75833        24.60062         1.95834
C         24.76155        25.35466         2.52200
C         25.38315        27.26429         1.13045
C         24.53814        26.73618         2.13653
C         24.99081        28.47547         0.54721
C         24.11257        29.38388         1.17185
C         25.45508        31.56800         0.34564
C         24.25294        30.87605         0.94275
C         25.38322        33.03872         0.02666
C         24.03045        33.69670        -0.16067
C         25.25545        35.93374        -0.33429
C         24.07826        35.19018         0.14240
C         25.33476        37.39186        -0.15234
C         24.12406        38.07468         0.23480
C         25.29208        40.21401        -0.32225
C         24.07150        39.52724         0.12033
C         25.31152        41.75488        -0.24173
C         24.09811        42.43161         0.23380
C         25.47261        44.56560         0.22969
C         24.17439        43.89579         0.62960
C         25.43589        46.03936        -0.16283
C         24.21362        46.75614         0.36266
C         25.51506        48.73597         1.00031
C         24.27383        48.04656         0.81164
C         27.96406        22.98734         0.76268
C         27.87430        24.42323         0.64857
C         26.79781        25.16790         1.13121
C         27.74504        27.23739        -0.03263
C         26.79769        26.69133         1.05935
C         27.84002        28.76422        -0.06900
C         26.74135        29.48701        -0.38457
C         27.89841        31.65831        -0.09917
C         26.61750        30.96204        -0.45969
C         27.85904        33.06218        -0.07242
C         26.55830        33.72128        -0.15604
C         27.82844        35.92800        -0.32700
C         26.57465        35.16929        -0.46548
C         27.80908        37.33842        -0.39873
C         26.55341        38.06097        -0.34412
C         27.77341        40.22304        -0.38045
C         26.58403        39.50732        -0.32662
C         27.78869        41.63745        -0.11296
C         26.62250        42.38144        -0.00460
C         27.94061        44.47890         0.19917
C         26.63673        43.82835         0.16582
C         27.98706        45.96315         0.26031
C         26.74274        46.78208         0.12455
C         27.99598        48.78228         1.05853
C         26.72985        48.14859         0.72371
C         28.05749        50.18530         1.43501
C         30.42362        22.90247         0.50554
C         29.13423        22.27675         0.65068
C         30.39592        24.36066         0.20341
C         29.08931        25.11496         0.14518
C         30.25913        27.32777         0.23915
C         29.09978        26.60518         0.18990
C         30.27087        28.78213         0.24067
C         29.09408        29.48777         0.10486
C         30.32027        31.68235         0.13845
C         29.09750        30.94472         0.06571
C         30.30718        33.10664         0.01298
C         29.06962        33.80265        -0.05682
C         30.28925        35.95301        -0.27354
C         29.06163        35.23897        -0.17837
C         30.26367        37.36269        -0.48232
C         29.05124        38.04689        -0.47376
C         30.34785        40.23718        -0.50909
C         29.03988        39.51572        -0.81746
C         30.32593        41.61763        -0.23975
C         29.09211        42.24434         0.35876
C         30.38644        44.40489         0.44986
C         29.09923        43.74824         0.28784
C         30.39135        45.74124         1.06804
C         29.12461        46.55865         1.01724
C         30.35994        48.56569         1.76853
C         29.16198        48.02779         1.19117
C         30.46889        50.04019         2.18508
C         29.16032        50.75099         1.97061
C         32.89006        20.09555         0.20813
C         31.74662        20.78074         0.48020
C         32.93540        22.98122         0.47063
C         31.64392        22.22711         0.50753
C         32.94293        24.48144         0.44680
C         31.59699        25.19929         0.61033
C         32.80672        27.32503        -0.17522
C         31.53769        26.59031         0.01921
C         32.83517        28.77045         0.20718
C         31.54074        29.51929         0.40942
C         32.77615        31.68368         0.09655
C         31.56395        30.98776         0.22766
C         32.77605        33.12057        -0.01680
C         31.54084        33.83743        -0.05715
C         32.78512        35.97514        -0.30943
C         31.54253        35.24955        -0.22550
C         32.80762        37.37619        -0.53185
C         31.52163        38.05716        -0.96963
C         32.85795        40.23502        -1.04860
C         31.54780        39.54416        -0.71087
C         32.80978        41.75456        -0.87116
C         31.53727        42.43076        -0.44866
C         32.81360        44.61610         0.06585
C         31.56529        43.80782         0.10282
C         32.86107        45.91350         0.82979
C         31.66703        46.44322         1.30180
C         33.27823        48.91111         1.79474
C         31.44424        47.72328         1.96030
C         32.99896        50.16910         1.38421
C         31.60307        50.78732         1.31725
C         32.82546        52.99634         1.35282
C         31.70139        52.27587         1.58788
C         35.31517        18.71372        -0.99417
C         35.31971        20.10777        -0.74699
C         34.18855        20.76006        -0.03917
C         35.19750        23.03072        -0.74623
C         34.20276        22.24893         0.09171
C         35.43875        24.45248        -0.15262
C         34.13470        25.23133        -0.05904
C         35.31481        27.39556        -0.49625
C         34.09311        26.57773        -0.23505
C         35.11471        28.86037        -0.71954
C         34.01546        29.54247        -0.18117
C         35.21263        31.65178        -0.42590
C         34.01133        30.95603        -0.14153
C         35.25962        33.08071        -0.07948
C         33.99562        33.84001        -0.06793
C         35.27194        35.96197        -0.23914
C         34.01972        35.24787        -0.19093
C         35.26282        37.40139        -0.21898
C         34.03337        38.10545        -0.42346
C         35.26531        40.23257        -0.18646
C         34.08369        39.54191        -0.47066
C         35.23415        41.75135        -0.02778
C         34.16395        42.47470        -0.87240
C         35.38017        44.60372        -0.12982
C         34.08529        43.94891        -0.42624
C         35.33664        46.11535        -0.03306
C         34.19198        46.60671         0.89281
C         35.48539        48.84111         0.72921
C         34.36790        48.06753         1.29398
C         35.41312        50.23958         0.66852
C         34.06697        50.93914         0.59217
C         35.28576        53.13117         0.93533
C         34.10896        52.41053         1.00245
C         35.36536        54.58464         0.96679
C         37.72577        18.70229        -1.50630
C         36.43307        18.02947        -1.42039
C         37.76670        20.16401        -1.22145
C         36.51089        20.88452        -1.01494
C         37.74941        23.03963        -1.13489
C         36.50697        22.27905        -0.91818
C         37.84425        24.47511        -0.78087
C         36.52872        25.17896        -0.98234
C         37.92554        27.25907        -1.11960
C         36.61167        26.66703        -0.71646
C         37.97873        28.60304        -1.62846
C         36.08277        29.65137        -1.35319
C         37.60835        31.68468        -1.38336
C         36.30623        31.00618        -1.04150
C         37.68746        33.15143        -1.02299
C         36.53196        33.80785        -0.33575
C         37.75379        35.92795        -0.20033
C         36.49870        35.27753        -0.34462
C         37.71081        37.33124         0.22468
C         36.47394        38.10793         0.00165
C         37.76529        40.20971         0.27776
C         36.49328        39.52274         0.08050
C         37.72105        41.70098         0.59711
C         36.63292        42.38198        -0.28319
C         37.80671        44.59439         0.06599
C         36.57056        43.89546        -0.08174
C         37.83948        45.98494         0.29273
C         36.66046        46.72745         0.37486
C         37.90021        48.89353         0.49506
C         36.70131        48.14736         0.55271
C         37.85390        50.30108         0.49959
C         36.60609        50.97188         0.56360
C         37.77186        53.21036         0.39773
C         36.61815        52.40789         1.03351
C         37.88221        54.61968         1.02884
C         36.52528        55.28769         0.92897
C         40.31656        15.79264        -1.44588
C         39.11908        16.44060        -1.43556
C         40.25034        18.63114        -0.91545
C         39.04022        17.91927        -1.45706
C         40.27306        20.15660        -0.78432
C         38.97708        20.81548        -1.20028
C         40.31875        22.96728        -0.98845
C         39.04520        22.27472        -1.30660
C         40.28138        24.31244        -0.54290
C         39.04850        25.12332        -0.57068
C         40.31027        27.39187        -0.81643
C         39.08591        26.60124        -0.71967
C         40.30343        28.75800        -1.39284
C         39.02166        29.47306        -1.44663
C         40.25015        31.69614        -1.31323
C         38.96137        30.95346        -1.59747
C         40.26761        33.06422        -0.93321
C         39.00822        33.85675        -0.82957
C         40.22926        35.90951        -0.06729
C         38.97559        35.22734        -0.22913
C         40.28081        37.30632        -0.06572
C         39.06406        38.06835         0.28271
C         40.26049        40.25595         0.19732
C         38.98713        39.54956         0.24763
C         40.30271        41.61933         0.15157
C         39.07813        42.40612         0.41176
C         40.31526        44.58779        -0.43769
C         39.09907        43.87526         0.14878
C         40.38522        46.01638         0.07775
C         39.14613        46.63916         0.54488
C         40.41841        48.86502         0.34352
C         39.16936        48.17330         0.63013
C         40.34915        50.33034         0.19276
C         39.09254        51.06354         0.45468
C         40.31870        53.18647         0.60040
C         39.08469        52.45066         0.47416
C         40.40514        54.66164         0.34439
C         39.06923        55.38469         0.38344
C         39.84339        56.76845        -1.49877
C         38.84846        56.41185        -0.64125
C         42.80746        15.84589        -1.41482
C         41.58104        16.48125        -1.35685
C         42.81723        18.70006        -1.06598
C         41.55837        17.91264        -0.98907
C         42.78744        20.06718        -1.20104
C         41.48846        20.80959        -1.48200
C         42.78301        22.95365        -0.89014
C         41.54333        22.27747        -1.07846
C         42.77394        24.31356        -0.48207
C         41.52782        24.83056        -0.13565
C         42.79102        27.54043        -0.71377
C         41.51500        27.00803        -0.28679
C         42.81489        28.84084        -1.13854
C         41.55718        29.54486        -1.44869
C         42.74051        31.69959        -1.27527
C         41.50319        31.02095        -1.35139
C         42.74151        33.08657        -0.97563
C         41.49312        33.70184        -0.63326
C         42.86933        36.14382        -1.32111
C         41.40276        34.98571         0.17039
C         42.78808        37.40561        -0.71506
C         41.45851        38.15454        -0.58285
C         42.82239        40.19125         0.36496
C         41.50372        39.39066         0.37729
C         42.81267        41.72963         0.37965
C         41.56539        42.33211        -0.28956
C         42.77470        44.53632        -0.14310
C         41.60518        43.84743        -0.15806
C         42.78195        46.01577        -0.48239
C         41.56554        46.72761         0.06230
C         42.91319        48.89241         0.23191
C         41.60367        48.16747         0.24571
C         42.98961        50.40263         0.34953
C         41.65083        51.09816         0.29724
C         43.25419        53.44384         0.00791
C         41.47884        52.46615         0.75711
C         42.81509        54.58204        -0.67424
C         41.49658        55.16039        -0.57002
C         42.06707        56.52385        -2.56515
C         41.16218        56.18438        -1.47549
C         44.01230        16.55233        -1.15879
C         45.28737        18.63510        -0.68964
C         44.05345        17.93373        -0.97691
C         45.37780        20.06265        -0.99497
C         44.04199        20.84479        -1.30345
C         45.26424        22.97921        -0.82840
C         44.04586        22.27210        -1.01675
C         45.28187        24.41565        -0.74129
C         44.02856        25.18580        -0.32958
C         45.23710        27.35217        -1.02561
C         43.93436        26.57227        -1.09731
C         45.25526        28.70879        -1.21864
C         44.04217        29.42981        -1.77031
C         45.29476        31.66517        -1.19268
C         44.04079        31.01965        -1.76406
C         45.27493        33.12320        -1.02927
C         44.00006        33.85190        -1.01398
C         45.22641        35.97233        -0.65775
C         44.00229        35.26250        -1.05505
C         45.23338        37.44073        -0.69299
C         44.04058        38.07983        -0.45552
C         45.36173        40.24195        -0.17196
C         44.08396        39.49837        -0.02326
C         45.39255        41.68485         0.27695
C         44.09837        42.34850        -0.24068
C         45.37330        44.58997        -0.07510
C         44.07460        43.84303         0.05717
C         45.34315        46.03919        -0.37717
C         44.08964        46.75449        -0.29672
C         45.25376        48.89870        -0.64886
C         44.09584        48.15125        -0.26142
C         45.28578        50.30660        -0.67387
C         44.17920        51.12689        -0.23172
C         45.17384        53.06178        -1.55977
C         44.19227        52.50624        -0.51863
C         45.17418        54.56908        -1.61044
C         43.89259        55.35309        -1.42715
C         43.32851        56.04292        -2.64143
C         47.56835        18.73543         0.15287
C         46.39503        18.01249        -0.11549
C         47.62557        20.12488        -0.00889
C         46.51354        20.84473        -0.51099
C         47.72047        23.01143        -0.50937
C         46.50390        22.26999        -0.63925
C         47.74496        24.37671        -0.84086
C         46.49814        25.08678        -0.89549
C         47.80373        27.29264        -1.19162
C         46.50233        26.55887        -1.11204
C         47.76162        28.74018        -0.78737
C         46.47043        29.48536        -0.90684
C         47.75786        31.64204        -0.83823
C         46.47986        30.96527        -1.04379
C         47.82235        33.11459        -1.16880
C         46.49182        33.78816        -0.93441
C         47.81316        35.95618        -0.99778
C         46.53933        35.20782        -0.61583
C         47.72006        37.38718        -0.51692
C         46.51465        38.18558        -0.98420
C         47.79473        40.28303        -0.39225
C         46.51734        39.57956        -0.41256
C         47.78830        41.70080        -0.53406
C         46.60666        42.42688        -0.28283
C         47.84079        44.55005        -0.68694
C         46.58154        43.81449        -0.42541
C         47.82901        46.05589        -0.75568
C         46.50704        46.71134        -0.67578
C         47.65715        48.78826        -1.59427
C         46.40758        48.10251        -1.12093
C         47.49734        50.23909        -1.72026
C         46.47316        50.96991        -1.20230
C         47.80156        53.29609        -1.21709
C         46.52958        52.46857        -1.18606
C         47.63871        54.67112        -1.70133
C         46.37442        55.26103        -1.76812
C         48.98179        21.80427         1.43626
C         48.90194        20.82807         0.26456
C         50.32124        22.87163        -0.30392
C         48.93328        22.31649        -0.01667
C         50.33264        24.36498        -0.61946
C         49.06567        25.06693        -1.01795
C         50.15521        27.25677        -0.23685
C         49.17327        26.60029        -1.22046
C         50.29508        28.74977        -0.52189
C         49.03530        29.51373        -0.78354
C         50.15084        31.67246        -0.11101
C         48.92853        30.97282        -0.57546
C         50.22216        33.13009        -0.26189
C         49.04118        33.84254        -0.59551
C         50.25129        35.95848        -0.18775
C         49.05873        35.23556        -0.54914
C         50.25670        37.37214        -0.14260
C         48.99484        38.11724        -0.18901
C         50.27695        40.26510        -0.53953
C         48.98939        39.57520        -0.34045
C         50.26652        41.77564        -0.38271
C         49.03716        42.29608        -1.14943
C         50.33777        44.55041        -1.25905
C         49.03313        43.82035        -1.23040
C         50.33277        46.06344        -1.23912
C         49.04204        46.81592        -1.19181
C         50.22617        49.00344        -0.98546
C         49.00713        48.18217        -1.37388
C         50.37448        50.50150        -1.00089
C         49.39888        51.36820        -1.50711
C         50.17146        53.24464        -0.25263
C         49.17136        52.68303        -1.06977
C         50.36537        22.06909         1.91417
C         52.58006        23.00175         0.85621
C         51.13197        22.58893         0.93393
C         52.64261        24.47499         0.41945
C         51.51926        25.14309        -0.13046
C         52.66510        27.28971         0.18973
C         51.50198        26.55411        -0.14451
C         52.66430        28.75132         0.19707
C         51.49820        29.44985        -0.03731
C         52.71107        31.66111         0.17919
C         51.43479        30.90909         0.17139
C         52.68649        33.04987         0.14193
C         51.44747        33.80750         0.01486
C         52.66828        35.95676         0.50742
C         51.45092        35.22494         0.06899
C         52.73055        37.43195         0.42388
C         51.42406        38.16979         0.37303
C         52.79374        40.30030        -0.13081
C         51.54314        39.52105        -0.30207
C         52.79248        41.67887        -0.46099
C         51.59304        42.45038        -0.70600
C         52.91448        44.59254        -1.14292
C         51.60946        43.81275        -0.98958
C         52.85626        46.05352        -0.70020
C         51.61931        46.80285        -1.02878
C         52.77281        49.01458        -0.50343
C         51.49602        48.25254        -0.66120
C         52.67055        50.41173        -0.03062
C         51.45279        51.13182        -0.29078
C         51.31608        52.51047         0.04304
C         54.49474        23.48109         2.33110
C         53.34323        22.82704         2.14923
C         55.00031        24.41023         1.23650
C         53.80689        25.19807         0.72759
C         55.05332        27.34952         0.89835
C         53.84718        26.60303         0.57975
C         55.09093        28.73181         0.73221
C         53.90201        29.47774         0.42359
C         55.17543        31.59283         0.55898
C         53.93033        30.88740         0.31528
C         55.24012        33.05122         0.26195
C         53.97014        33.81926        -0.10730
C         55.23268        35.97411         0.62388
C         53.95837        35.20587         0.53244
C         55.15955        37.44284         1.01267
C         53.91262        38.15320         0.50457
C         55.26736        40.22255         0.04732
C         53.95056        39.57666         0.25609
C         55.33483        41.66306        -0.35943
C         54.05552        42.43313        -0.27936
C         55.38657        44.63905        -0.42521
C         54.08424        43.90686        -0.46245
C         55.29024        46.02275        -0.25042
C         54.00560        46.71056        -0.32481
C         55.11513        48.88330         0.52094
C         54.02323        48.20863        -0.24977
C         55.00146        50.32685         0.74211
C         53.83849        51.02004         0.49492
C         57.25039        24.60404         2.29593
C         56.15493        25.26672         1.69272
C         57.37545        27.38177         1.83961
C         56.20339        26.64477         1.45059
C         57.48551        28.77341         1.58260
C         56.42607        29.44111         0.74168
C         57.48565        31.64564         1.49927
C         56.30542        30.92632         0.96956
C         57.55565        33.14763         1.39747
C         56.45741        33.82956         0.64192
C         57.61661        36.00242         1.36978
C         56.40221        35.30702         0.77307
C         57.66607        37.44868         0.93801
C         56.47862        38.14010         0.74760
C         57.70302        40.25780         0.55418
C         56.51432        39.53991         0.45954
C         57.64251        41.77623         0.64648
C         56.68862        42.40497        -0.39559
C         57.79319        44.59020         0.10371
C         56.60713        43.91955        -0.21145
C         57.84912        46.05719         0.03754
C         56.51881        46.81986        -0.11862
C         57.73308        48.87207         0.75797
C         56.46011        48.16353         0.54021
C         58.37203        25.30081         2.69626
C         59.61954        27.42858         2.84892
C         58.45612        26.69999         2.47754
C         59.71406        28.77462         2.58855
C         58.65111        29.47303         1.94306
C         59.92569        31.62608         1.82131
C         58.74422        30.91135         1.73144
C         60.00127        33.03175         1.62998
C         58.87783        33.81643         1.40000
C         60.08217        35.94287         0.94120
C         58.90835        35.23668         1.17267
C         60.10594        37.34523         0.82435
C         58.93139        38.11702         0.82742
C         60.13739        40.30274         0.81840
C         58.94472        39.56381         0.73940
C         60.15264        41.70657         0.73153
C         58.99174        42.45485         0.60301
C         60.11871        44.63521         0.92126
C         58.99237        43.89568         0.52801
C         60.10688        46.03907         1.01218
C         58.98951        46.76993         0.63293
C         58.91504        48.19838         0.79388
O         40.78507        18.03147         0.30131
O         57.42661        46.68133        -1.23341
O         44.94800        20.41465        -2.35240
O         55.55791        48.13188         1.70224
O         45.86210        35.53030         0.61992
O         39.33691        43.37022         1.51328
O         48.02678        37.60154         0.85789
O         46.76300        48.14344        -2.58090
O         49.96103        24.47266        -2.03640
O         51.14837        46.53673        -2.39369
O         49.94365        29.19325        -1.88623
O         32.34235        29.03441         1.55472
O         50.50557        31.24604         1.27185
O         38.39344        37.56049         1.48469
O         36.23235        33.30769         1.02213
O         29.46453        45.80679         2.22216
O         31.99295        26.89329        -1.34201
O         25.53555        28.84860        -0.69220
O         33.66482        50.90029        -0.76644
O         38.15065        31.43959        -2.70901
O         43.21063        49.58004         1.52011
O         25.77370        35.49866        -1.65307
O         33.26676        44.75229        -1.35877
O         41.02564        50.85635        -1.01684
O         57.12879        32.53469         2.64455
O         47.00120        29.02938         0.41888
O         44.79010        44.25014         1.25089
O         49.57069        44.22375        -2.52090
O         31.96605        42.35589        -1.90746
O         42.13612        35.15633         1.13039
O         55.30885        40.65610        -1.41129
O         25.38793        31.36004         1.78901
O         51.02275        39.65927        -1.65758
O         34.72825        46.96434         2.19690
O         33.23912        23.75557         1.70514
O         42.62049        53.11061         1.22087
O         48.19371        45.35249         0.50389
O         41.00553        28.95769        -2.71288
O         32.47565        48.24511         2.74857
O         38.35323        22.81354        -2.48710
O         38.53122        18.41564        -2.72765
O         29.75000        24.60980        -1.08010
O         53.77105        48.81513        -1.56416
O         47.11552        26.95746        -2.43131
O         56.31404        33.32445        -0.73584
O         47.03007        53.04214         0.05121
O         53.87125        43.34809         0.88044
O         25.13626        41.06236        -1.50871
O         40.11068        55.65178         1.39084
O         50.57389        48.54327         0.41319
O         38.24664        33.92890        -2.10838
O         39.23992        47.31923         1.82455
O         53.21448        35.35673         1.78880
O         36.27259        27.12228         0.62660
O         41.53684        25.98794         0.65875
O         34.73176        21.47342         1.18522
O         27.69755        46.66062        -0.99740
O         48.49801        50.86510        -2.45549
O         43.69042        39.65575         1.42234
O         36.84739        29.02315        -2.32071
O         40.39028        20.48989         0.62182
H         40.64881        19.65948         1.09281
O         57.26928        42.21867        -1.69765
H         56.80135        41.45937        -2.12189
O         34.82457        42.02815         1.33010
H         35.59832        41.83217         1.92249
O         45.45952        41.71768         1.72011
H         45.18887        40.83223         2.05709
O         50.02678        20.03307        -0.00484
H         50.64625        20.53727        -0.57963
O         47.83382        35.97587        -2.45782
H         47.96349        35.04125        -2.76951
O         31.40344        25.45155         2.02718
H         31.94400        24.78786         2.51958
O         27.40733        27.14999         2.30244
H         26.87893        26.80050         3.05119
O         44.09179        31.39521        -3.17555
H         44.35541        32.33778        -3.22981
O         42.73271        42.16666         1.74297
H         43.64553        42.18334         2.11991
O         48.02239        33.17429        -2.64045
H         48.82177        32.64736        -2.86034
O         34.57191        42.50211        -2.25599
H         33.85107        42.96904        -2.73874
O         40.15751        44.60479        -1.88643
H         40.92309        45.12623        -2.24141
O         30.80915        50.17347         3.56989
H         31.55816        49.56025         3.75573
O         43.66836        26.24261        -2.47377
H         43.78080        27.07532        -3.00067
O         27.25180        26.75244        -1.29801
H         27.96464        26.83351        -1.96518
O         44.77279        52.58188        -2.86840
H         44.83629        51.60290        -2.87070
O         42.59401        46.01166        -1.96289
H         42.72527        46.92938        -2.28715
O         29.00073        39.54814        -2.28605
H         29.72197        38.94936        -2.60345
O         26.33705        31.28043        -1.85687
H         25.66909        30.63550        -2.17569
O         55.52765        23.60434         0.15285
H         54.82344        22.95709        -0.11248
O         37.36416        41.80563         1.99278
H         37.96225        42.48445         2.39391
O         49.54287        27.12074         1.07266
H         50.08858        27.59884         1.73232
O         33.01797        40.04067        -2.50578
H         32.47608        40.75135        -2.92559
O         57.37831        35.99703         2.81156
H         56.56140        36.53934         2.96887
O         53.23500        22.16426        -0.13841
H         52.62266        22.10937        -0.91580
O         44.17634        42.15587        -1.66222
H         43.27326        42.25206        -2.05753
O         29.17046        41.92124         1.80166
H         28.57142        42.53410         2.27979
O         43.96760        28.98141        -3.15469
H         43.14225        29.34967        -3.54239
O         53.22979        44.62114        -2.56014
H         52.54986        45.19108        -2.99293
O         50.90187        22.19383        -1.45231
H         50.58689        22.69706        -2.24392
O         50.00870        42.05803         1.01423
H         50.78185        41.77605         1.54752
O         41.06174        38.62942        -1.88952
H         41.07043        37.86363        -2.50370
O         44.25076        56.43790        -0.50006
H         43.43963        56.96421        -0.33245
O         38.17729        54.49469         2.43821
H         39.06694        54.90709         2.58764
O         31.44322        37.89815        -2.43943
H         32.15770        38.48337        -2.80749
O         46.57387        38.35507        -2.42579
H         46.98952        37.54981        -2.81890
O         53.98861        34.05169        -1.54169
H         54.92952        33.96580        -1.83016
O         24.20663        43.90830         2.10519
H         23.36084        43.52584         2.42212
O         56.93191        29.33724        -0.64520
H         56.25772        29.73332        -1.23795
O         44.21746        25.48600         1.07265
H         43.34675        25.77415         1.43250
O         49.07768        41.76232        -2.48375
H         49.46178        42.45869        -3.06857
O         25.25688        46.00880        -1.60897
H         26.16075        46.05051        -2.00301
O         35.08850        46.65637        -1.36277
H         34.32360        46.15475        -1.74217
O         31.19409        50.60840        -0.04851
H         32.00513        50.80898        -0.61489
O         41.58025        42.10572        -1.73799
H         40.91072        42.71892        -2.13003
O         49.71241        26.81460        -2.52631
H         49.00692        26.59723        -3.17429
O         51.09705        38.51260         1.77032
H         50.91173        37.67791         2.25204
O         37.48278        53.42731        -1.00237
H         37.22167        52.57062        -1.40190
O         34.52987        23.13280        -2.02583
H         35.02075        23.79856        -2.57121
O         57.05076        42.07676         1.94478
H         57.63110        41.70326         2.64067
O         55.00647        37.42174         2.47851
H         54.24687        36.81339         2.66206
O         41.26093        20.71863        -2.90649
H         42.01188        21.14255        -3.37214
O         36.86648        52.23387         2.45680
H         37.21389        53.08804         2.81614
O         41.87713        35.77298        -2.19147
H         42.03679        34.87184        -2.54015
O         35.97454        24.29079         1.16796
H         35.24836        23.96268         1.74997
O         37.08363        42.11818        -1.62365
H         36.34953        42.35132        -2.24398
O         41.33157        38.85068         1.70244
H         42.21690        38.81617         2.13535
O         23.72513        33.60010        -1.58672
H         24.40192        34.15135        -2.05198
O         36.22937        25.07206        -2.41069
H         37.00595        24.68221        -2.87027
H         22.81499        27.12452         3.40458
H         22.64198        29.51970         2.77331
H         22.13268        31.23824         1.48658
H         21.94715        33.45804         0.61186
H         22.15048        35.39280         1.07574
H         22.14084        37.83723         1.05423
H         21.99546        39.76805         0.63275
H         22.03260        42.19834         0.75963
H         21.99309        44.14795         0.11468
H         22.03047        46.60552         0.10750
H         25.80562        23.52868         2.20084
H         24.04539        24.88167         3.21004
H         25.47571        49.74009         1.44326
H         23.34732        48.55664         1.11374
H         27.03973        22.42458         0.95984
H         27.15233        50.79816         1.31717
H         29.08680        21.18417         0.76401
H         29.10505        51.79821         2.30198
H         32.84335        18.99793         0.15807
H         30.82323        20.20139         0.62547
H         32.78802        54.08269         1.53361
H         30.79213        52.81595         1.89110
H         34.37971        18.15264        -0.85604
H         34.41997        55.14920         0.95153
H         36.36625        16.96065        -1.66416
H         36.48372        56.38769         0.95253
H         40.33613        14.69552        -1.52955
H         38.18949        15.86535        -1.55328
H         39.63681        57.51249        -2.28256
H         37.83592        56.81908        -0.77424
H         42.85556        14.76727        -1.62189
H         41.65641        57.13298        -3.38501
H         44.95199        15.98271        -1.14596
H         43.97532        56.26408        -3.50194
H         48.45490        18.21368         0.53634
H         46.36165        16.93857         0.11550
H         48.53387        55.26914        -1.92227
H         46.31939        56.34783        -1.93481
H         48.11894        21.92253         2.11024
H         50.05741        54.26517         0.13755
H         50.70001        21.81851         2.92904
H         52.10968        52.99963         0.62268
H         55.08459        23.34430         3.25041
H         52.95860        22.12282         2.90204
H         55.84512        50.84646         1.21626
H         53.81651        52.08830         0.75094
H         57.20264        23.51507         2.43419
H         57.71020        49.94919         0.97436
H         59.21776        24.77753         3.16487
H         60.44636        26.89911         3.34371
H         60.61618        29.32173         2.89350
H         60.86908        31.09321         2.00542
H         60.99394        33.50167         1.67394
H         61.03434        35.39982         0.85242
H         61.08108        37.83288         0.69128
H         61.09765        39.78269         0.93310
H         61.13098        42.20794         0.73645
H         61.02246        44.10728         1.25418
H         60.98551        46.56022         1.41851
H         59.84189        48.74004         1.03487
