         349
 CSIRO Nanostructure Databank - Neutral Graphene Oxide Data Set
C          1.47109         3.47274        -1.04210
C          0.44590         4.13092        -1.68477
C          1.58546         6.27943        -1.36665
C          0.53364         5.52448        -1.88057
C          1.66845         7.70435        -1.90430
C          0.42224         8.54656        -1.77983
C          1.42576        10.58134        -0.71770
C          0.31765         9.79093        -1.25229
C          1.41258        11.99822        -0.72791
C          0.19453        12.74436        -0.93734
C          1.26148        14.93145        -0.48645
C          0.07622        14.08513        -0.72283
C          1.17221        16.36676        -0.10778
C         -0.03326        17.07376        -0.19491
C          1.09362        19.19417         0.21940
C         -0.07199        18.46130        -0.00678
C          1.04543        20.68321         0.52131
C         -0.13652        21.42996        -0.03252
C          1.14345        23.51228        -0.09221
C         -0.08108        22.78178        -0.20930
C          1.19489        25.02223         0.01624
C         -0.04717        25.79771        -0.33760
C          1.25577        27.83977        -0.76526
C          0.01305        27.13319        -0.60956
C          1.35089        29.24027        -0.79679
C          3.67324         3.49203         0.03232
C          2.56958         4.20194        -0.50779
C          3.66785         6.30558         0.14248
C          2.59942         5.63187        -0.57228
C          3.67868         7.74551         0.30657
C          2.52357         8.57142         0.22375
C          3.91868        10.62294        -0.41013
C          2.59401         9.89911        -0.24358
C          3.72504        12.04448         0.14386
C          2.57194        12.70490        -0.20150
C          3.65547        14.94891         0.44404
C          2.54507        14.19085        -0.16531
C          3.58629        16.33450         0.47274
C          2.36623        17.06780         0.22524
C          3.53522        19.25516         0.56731
C          2.33393        18.50350         0.35326
C          3.55330        20.66132         0.38106
C          2.34401        21.39169         0.21718
C          3.64625        23.48326        -0.17571
C          2.36401        22.79431         0.00522
C          3.67560        24.81979        -0.53363
C          2.41223        25.55854        -0.71101
C          3.77996        27.72439        -1.01338
C          2.47021        27.04584        -0.99751
C          3.80605        29.16081        -1.05350
C          2.57337        29.88419        -0.97198
C          5.96779         3.28660         0.96062
C          4.79969         4.15133         0.50618
C          5.93341         6.27713         1.31497
C          4.78656         5.56620         0.60348
C          6.04197         7.71573         0.89899
C          4.93287         8.41020         0.50464
C          6.00656        10.63739         1.13201
C          5.10851         9.86950         0.18947
C          6.02378        12.00302         1.14070
C          4.70828        12.73138         1.07203
C          6.00660        14.87521         1.19625
C          4.85532        14.22174         0.83295
C          6.01337        16.35479         1.25210
C          4.87251        17.10467         0.57039
C          6.06878        19.21357         0.81201
C          4.74510        18.53834         1.12905
C          6.04091        20.55390         0.23458
C          4.81056        21.35536         0.24962
C          6.15079        23.39208        -0.17613
C          4.87814        22.71941        -0.05799
C          6.21916        24.77519        -0.67563
C          4.92262        25.51053        -0.92395
C          6.23401        27.65557        -0.98463
C          4.96760        26.99269        -0.96836
C          6.26297        29.08569        -1.15930
C          5.04343        29.81113        -1.17803
C          8.51519         3.40018         0.54737
C          7.29417         4.02109         1.03770
C          8.52611         6.24693         0.80492
C          7.28421         5.54170         1.18543
C          8.47418         7.69463         0.35683
C          7.33832         8.44226         1.11894
C          8.47837        10.65792         0.49566
C          7.19444         9.88411         0.60998
C          8.47795        12.05212         1.03327
C          7.29344        12.70226         1.28044
C          8.57127        14.92676         1.57642
C          7.25554        14.16121         1.57748
C          8.59454        16.38229         1.27040
C          7.30796        17.11750         1.33880
C          8.53349        19.21080         0.71107
C          7.27496        18.54238         0.90595
C          8.59014        20.58719         0.55184
C          7.37503        21.29631         0.16555
C          8.62008        23.44146         0.11872
C          7.35864        22.75381         0.09646
C          8.64237        24.86706        -0.14493
C          7.47247        25.53583        -0.50506
C          8.69403        27.65840        -0.78384
C          7.46220        26.95265        -0.77287
C          8.72602        29.05328        -1.13861
C          7.50513        29.74581        -1.29237
C         10.96132         3.42811         0.40364
C          9.74427         4.08963         0.64572
C         10.99050         6.28648         0.83955
C          9.70644         5.54699         0.78160
C         10.99576         7.75006         0.59681
C          9.79753         8.42417         0.46021
C         11.05907        10.63894         0.52481
C          9.76700         9.90029         0.33601
C         11.07439        11.96925         1.19071
C          9.77189        12.69824         1.39342
C         11.02908        14.81009         1.17927
C          9.82914        14.16988         1.38651
C         11.03228        16.24115         0.69173
C          9.74827        16.99547         0.90581
C         11.04465        19.18131         0.95393
C          9.80411        18.44122         0.47183
C         11.03587        20.62014         0.88664
C          9.83135        21.31901         0.58592
C         11.12078        23.41520         0.10344
C          9.81175        22.72466         0.35083
C         11.05899        24.91927         0.30362
C          9.90106        25.59034        -0.04045
C         11.12756        27.68077        -0.56577
C          9.91976        27.00173        -0.42805
C         11.18692        29.01783        -1.09366
C          9.97640        29.69905        -1.32263
C         13.43673         3.52723        -0.14153
C         12.31122         4.01165         0.73757
C         13.51822         6.28254         0.47333
C         12.29010         5.53376         0.81249
C         13.49213         7.70392         0.59543
C         12.27682         8.40899         0.61789
C         13.54395        10.55434         1.14180
C         12.33692         9.87989         0.60185
C         13.60448        11.96357         1.23859
C         12.36504        12.71606         1.16749
C         13.51932        14.92170         1.50566
C         12.29101        14.10521         1.16803
C         13.45336        16.38282         1.12322
C         12.24659        17.04214         1.11096
C         13.44735        19.15091         1.79742
C         12.21279        18.47735         1.20760
C         13.48357        20.66217         1.50911
C         12.26213        21.34784         1.04098
C         13.56672        23.34382         0.48640
C         12.32254        22.70384         0.69141
C         13.58662        24.80566         0.26428
C         12.34903        25.64408         0.37349
C         13.59100        27.50628        -0.86410
C         12.40661        27.13785         0.01759
C         13.68136        28.91360        -1.25551
C         12.45547        29.62599        -1.33968
C         15.63746         3.64134        -1.24771
C         14.56592         4.24425        -0.36269
C         15.91633         6.39041        -0.03100
C         14.69062         5.64376         0.07263
C         15.99839         7.75287         0.33866
C         14.75263         8.40299         0.70754
C         16.43423        10.73531         0.88379
C         14.66281         9.68802         1.28164
C         16.11964        12.06669         0.55506
C         14.91171        12.72037         1.16008
C         15.80836        14.98483         0.24252
C         14.83034        14.22537         1.11260
C         15.73536        16.52369         0.13724
C         14.68913        17.14280         1.02845
C         16.08873        19.13927         1.52254
C         14.73321        18.46950         1.33757
C         16.09218        20.60627         1.09373
C         14.82655        21.34921         1.19099
C         16.00752        23.26403         0.07311
C         14.79608        22.66853         0.56063
C         15.82042        24.48083        -0.67685
C         14.71639        25.30695        -0.53251
C         16.46441        27.66048        -1.23493
C         14.57118        26.59019        -1.16322
C         16.20941        29.06944        -1.06442
C         14.90902        29.60487        -1.38507
C         18.08148         3.80242        -1.92510
C         17.00536         4.26317        -1.04392
C         18.33827         6.44295        -0.78804
C         17.13402         5.66456        -0.44882
C         18.37891         7.82207        -0.47012
C         17.25174         8.49857         0.10077
C         18.22630        10.68890        -0.79437
C         17.32996         9.92781         0.16855
C         18.31906        12.16988        -0.49839
C         17.20606        12.81870        -0.00726
C         18.31164        15.08490        -0.34888
C         17.05745        14.28578        -0.18238
C         18.17584        16.58246        -0.65319
C         17.08043        17.20902         0.19766
C         18.57923        19.01617         1.01124
C         17.21392        18.40572         0.80575
C         18.54096        20.55605         1.02545
C         17.25759        21.27834         0.78557
C         18.54781        23.39472         0.21971
C         17.28497        22.66396         0.30256
C         18.65298        24.83129        -0.00719
C         17.69549        25.55944        -0.74965
C         18.49305        27.70866         0.16855
C         17.53008        26.96705        -0.65871
C         18.41012        29.25328         0.09259
C         17.27197        29.86199        -0.61313
C         19.25418         4.49270        -2.01543
C         20.63863         6.51684        -1.69413
C         19.41321         5.80051        -1.44963
C         20.76575         7.82028        -1.34252
C         19.64394         8.55510        -0.74732
C         20.49504        10.83829        -1.82724
C         19.59550        10.06126        -0.92387
C         20.45415        12.18062        -1.78189
C         19.68007        12.83880        -0.65798
C         20.65645        15.21106        -1.28534
C         19.59936        14.37717        -0.66143
C         20.62425        16.56126        -1.19336
C         19.52675        17.25808        -0.52609
C         20.93047        19.19356         0.11784
C         19.66594        18.46917         0.09784
C         21.02222        20.49304         0.48161
C         19.82040        21.28608         0.84165
C         20.94612        23.47534         0.78800
C         19.77329        22.74708         0.55835
C         20.95954        24.87225         0.78904
C         19.81268        25.58165         0.42081
C         20.85275        27.84397         0.78940
C         19.77900        27.04452         0.44956
C         20.79922        29.27193         0.67887
C         19.68297        29.95072         0.27882
O          7.49801         4.67368         2.35750
O         17.95390        28.47894         1.27472
O         15.58493        26.97285        -2.07858
O         17.39583         4.44629         0.34882
O         20.09572         9.51139         0.30491
O         19.27308        21.05499         2.21058
O         15.38687        13.56502         2.29646
O         15.95036        14.47852        -1.13608
O          6.49630        16.86096         2.54357
O          2.24260        26.02768        -2.06867
O          7.87871        14.57007         2.83022
O          2.28703        14.72111        -1.52595
O         11.89833        10.55127        -0.66048
O         13.21036        25.44585         1.56235
O         19.26688        14.83053         0.71786
O         11.72186         5.97339         2.09850
O         14.22018        21.36747         2.54285
O         16.83604        24.83276        -1.58723
O         15.76505        10.16828         1.98049
O          9.06103        10.47086        -0.84209
O          5.64639        24.88555        -2.03927
O          2.65170         8.06203        -2.52784
O          6.38069         9.81668        -0.68277
O          6.77049        20.67484        -1.03154
O         10.43310        11.97940         2.50936
O         18.96054        18.58332         2.35402
H         19.48519        19.33143         2.73920
O          9.91488        18.40083        -1.00666
H          9.72434        19.30240        -1.34658
O         15.72502         2.22590        -1.05358
H         16.03507         2.07153        -0.13677
O          5.29798        17.26413        -0.82188
H          4.80092        16.63287        -1.38457
O         13.34022        18.98813         3.23021
H         14.14558        19.40099         3.61776
O          4.49952        18.53123         2.55171
H          5.24239        18.03567         2.97975
O         12.59802         3.51112         2.08176
H         12.15182         4.13559         2.70136
O          1.47119        25.31146         1.43958
H          0.68484        25.03691         1.95681
O          4.08806        12.62886         2.40155
H          4.72006        12.99908         3.05472
O          7.65673         8.46874         2.52390
H          7.07715         7.81626         2.98148
O          4.16988        10.79599        -1.82619
H          5.09038        10.51054        -2.01499
O         17.78897        16.72496        -2.04167
H         16.80212        16.64663        -2.08653
O         12.56235        27.87502         1.26372
H         13.06067        27.28325         1.87663
O         17.61545        10.56329        -2.12749
H         16.79705        11.10423        -2.13728
O         20.41642        12.49067         0.54665
H         20.07026        13.06422         1.26777
O          0.89464        20.74584         1.99762
H          1.00086        21.68590         2.25705
O          8.10936         7.65737        -1.04756
H          8.15200         8.58164        -1.38982
O         16.33953        19.09015         2.95463
H         17.30264        18.88700         3.07953
O          1.33254         8.07235         0.65810
H          1.45957         7.15799         0.98421
O         15.21152        16.82709        -1.20316
H         14.47004        16.21236        -1.39286
O         11.35421        23.28424        -1.36266
H         10.52764        23.56008        -1.81617
O          5.62115         6.32214         2.74656
H          6.04549         5.52462         3.14794
O         11.19139        16.06686        -0.76180
H         10.82784        16.87836        -1.19737
O          5.67298         2.71747         2.24490
H          6.12668         3.26976         2.91940
O         13.46335        15.00021         2.96053
H         14.11762        14.34696         3.31194
H          1.46356         2.37758        -0.94735
H         -0.40617         3.57543        -2.09939
H         -0.23078         6.01649        -2.49906
H         -0.50536         8.07110        -2.13836
H         -0.67809        10.26243        -1.28532
H         -0.71992        12.18581        -1.18347
H         -0.91616        14.55373        -0.78590
H         -0.96648        16.54535        -0.43320
H         -1.04467        18.96723        -0.06881
H         -1.10589        20.92067        -0.12205
H         -0.99962        23.32233        -0.48167
H         -1.03135        25.32485        -0.20459
H         -0.92132        27.70836        -0.70458
H          0.43572        29.84011        -0.68367
H          3.65040         2.39258         0.02630
H          2.60636        30.98222        -1.01402
H          6.06997         2.43812         0.23210
H          5.07437        30.90770        -1.25882
H          8.48982         2.36097         0.18954
H          7.52018        30.82652        -1.49703
H         10.92646         2.33978         0.23724
H          9.99479        30.74697        -1.65676
H         13.38370         2.49725        -0.52766
H         12.47649        30.68270        -1.64807
H         15.33905         3.80003        -2.32102
H         14.84286        30.70029        -1.49049
H         17.91833         2.88725        -2.51213
H         17.19161        30.95907        -0.64095
H         20.07402         4.10058        -2.63541
H         21.47575         5.97883        -2.16182
H         21.71429         8.35580        -1.48600
H         21.10786        10.31444        -2.57723
H         21.05996        12.78484        -2.47352
H         21.50408        14.71377        -1.77814
H         21.46376        17.14538        -1.59883
H         21.83921        18.67016        -0.21357
H         21.99788        20.99863         0.44139
H         21.86333        22.94028         1.06922
H         21.87659        25.39952         1.08220
H         21.81724        27.39350         1.06249
H         21.73184        29.82877         0.84965
H         19.73615        31.02664         0.05650
