         294
 CSIRO Nanostructure Databank - Neutral Graphene Oxide Data Set
C          1.57863         2.11277         1.43261
C          1.50021         3.48625         1.30455
C          2.77389         1.39614         1.23399
C          2.70104         4.30279         1.08963
C          1.97635         6.73414         1.48466
C          1.93965         8.06661         1.13270
C          2.47867         5.70463         0.49318
C          2.58200         8.58394        -0.02292
C          1.47506        10.89593         0.18486
C          1.45516        12.25962        -0.10232
C          2.43107         9.98942        -0.44998
C          2.36183        12.89326        -0.94938
C          1.10894        15.05521        -0.63728
C          1.17967        16.03439         0.27220
C          2.31977        14.37414        -1.24272
C          2.51586        16.50326         0.79913
C          2.50767        17.88245         1.40783
C          3.98351         2.05148         0.87888
C          3.99600         3.53992         0.86936
C          5.14357         1.36793         0.54969
C          5.01583         4.17499        -0.03861
C          3.69049         6.29586        -0.27447
C          3.61561         7.74249        -0.66683
C          5.07617         5.68231         0.01904
C          4.86882         8.43741        -1.15594
C          3.56372        10.65579        -1.24492
C          3.57878        12.17455        -1.47126
C          4.87383         9.91479        -1.41991
C          4.86426        12.85911        -1.04220
C          3.63166        14.95628        -0.75193
C          3.55956        16.39400        -0.33652
C          4.85586        14.25394        -0.81964
C          4.88281        17.00334         0.07129
C          3.66205        18.57033         1.50084
C          4.90667        18.05590         0.92362
C          6.42851         2.12773         0.36951
C          6.21103         3.39491        -0.45165
C          7.63430         1.32418        -0.02335
C          7.40438         4.07231        -1.08006
C          6.17556         6.31545        -0.78172
C          6.19396         7.80909        -0.70779
C          7.34292         5.59252        -1.41383
C          7.38470         8.46586        -1.40167
C          6.16549        10.65253        -1.22852
C          6.15538        12.17980        -1.41254
C          7.33025         9.96094        -1.06795
C          7.28474        12.83594        -0.60956
C          6.12397        15.00611        -0.71613
C          6.08200        16.54085        -0.71344
C          7.32513        14.34078        -0.77484
C          7.39346        17.15236        -0.23267
C          6.17821        18.78524         1.27016
C          7.43958        18.19978         0.66842
C          8.78716         1.95754        -0.45561
C          8.71087         3.33306        -1.03751
C         10.04048         1.29701        -0.45095
C          9.99006         4.11601        -1.20448
C          8.64629         6.34571        -1.02216
C          8.64767         7.70255        -1.00826
C          9.95415         5.60346        -1.05795
C          9.89257         8.45755        -0.59978
C          8.59752        10.64347        -0.58219
C          8.57295        12.11797        -0.93092
C          9.84888         9.90860        -1.15288
C          9.85100        12.85780        -0.99239
C          8.58139        15.06407        -0.84896
C          8.59706        16.44240        -0.65632
C          9.87533        14.34914        -0.94590
C          9.87831        17.10650        -0.65413
C          8.65794        18.75386         1.26567
C          9.85994        18.84597         0.62373
C         11.27901         1.96035        -0.63766
C         11.35764         3.43749        -0.99333
C         12.46768         1.31484        -0.35678
C         12.13921         4.13712         0.15897
C         11.18884         6.30884        -0.65308
C         11.22688         7.77815        -0.97927
C         12.28517         5.64531        -0.05572
C         12.27369         8.53190        -0.21134
C         11.15860        10.65900        -0.85629
C         11.14726        12.15024        -0.71657
C         12.25772         9.88961        -0.21900
C         11.96381        12.78569         0.41300
C         11.14283        15.04528        -0.49528
C         11.06652        16.50544        -0.34460
C         12.26340        14.37446         0.29901
C         12.34751        17.32248        -0.30267
C         11.19674        19.09095         1.17013
C         12.31399        18.43509         0.75103
C         13.76392         2.07371        -0.28024
C         13.48163         3.43238         0.40730
C         14.85446         1.28426         0.46976
C         14.69057         4.19737         0.84768
C         13.40365         6.34368         0.42745
C         13.38150         7.84633         0.54608
C         14.61187         5.70268         1.10691
C         14.67313         8.48626        -0.00513
C         13.36910        10.65004         0.34864
C         13.17749        11.94696         0.71415
C         14.68902         9.96459         0.40577
C         15.04450        12.99656         0.28558
C         13.59224        15.00271        -0.15476
C         13.61241        16.46474        -0.20723
C         14.79178        14.31831        -0.24401
C         14.82108        17.15409        -0.15082
C         13.66174        18.81422         1.32083
C         14.80420        18.62783         0.30503
C         16.10931         2.12661         0.63330
C         16.00296         3.54206         0.75107
C         17.34112         1.49314         0.64893
C         17.16446         4.31078         1.22160
C         15.93078         6.43670         0.80648
C         15.94712         7.78278         0.39435
C         17.16531         5.78476         1.02924
C         17.16482         8.46157         0.16703
C         15.99154        10.69828         0.13082
C         16.02072        12.15469        -0.16734
C         17.11437         9.84586        -0.46538
C         17.06660        12.68209        -1.14412
C         15.98844        15.01230        -0.74721
C         16.06158        16.45635        -0.43484
C         17.19770        14.22554        -1.12534
C         17.24208        17.05570        -0.79675
C         16.10545        19.05428         0.97560
C         17.28668        18.95133         0.31854
C         18.61428         2.27661         0.65739
C         18.46516         3.60117         1.38549
C         19.82167         1.53226         1.14221
C         19.73225         4.43247         1.59340
C         18.38872         6.45469         0.77847
C         18.39135         7.79388         0.34150
C         19.71617         5.70953         0.72799
C         19.65263         8.39141        -0.26810
C         18.40760        10.62796        -0.36213
C         18.40281        12.01397        -0.90257
C         19.69438         9.91574        -0.18155
C         19.55282        12.56912        -1.40326
C         18.59424        14.84781        -0.86900
C         18.54826        16.39506        -1.02700
C         19.69405        14.01830        -1.54222
C         19.79093        17.20616        -0.56295
C         18.61886        19.06341         0.85422
C         19.71852        18.33373         0.44231
C         20.97822         2.23814         1.37844
C         21.00430         3.65793         1.34235
C         22.19876         4.42256         1.23742
C         20.92190         6.61026         1.10977
C         20.95918         7.80529         0.18774
C         22.19279         5.78945         1.12929
C         22.13167         8.44894        -0.22531
C         20.98368        10.67311        -0.54934
C         20.67006        11.59074        -1.77464
C         22.14671         9.74079        -0.72970
C         21.88529        12.26486        -2.34177
C         20.94669        14.48018        -1.89136
C         21.10052        16.51058        -0.61391
C         21.97492        13.60366        -2.43535
C         22.15222        16.76626         0.21254
C         20.89305        18.54074         1.27327
C         22.02121        17.78127         1.21648
O         15.60806        10.29249         1.47676
O         16.38888        14.80007        -2.19130
O         17.60907         3.68570         2.54939
O          9.16303        12.41553        -2.21867
O          4.82223         8.92603        -2.50446
O          9.85850        18.51537        -0.75189
O         14.21546        12.63232         1.36990
O         19.03694        10.48718         0.98306
O         19.30006        17.20937        -1.95448
O         21.38996        15.77323        -1.77348
O         11.72604        11.55284        -1.89575
O          5.03680         3.48011        -1.31607
O          7.88079         3.31594        -2.24420
O          3.71371         4.17554         2.13972
O          2.46682        10.07702        -1.96377
O         13.79458         3.44341         1.83929
O         17.26040        18.43777        -1.00513
O          3.30814         6.63603        -1.62636
O         10.01279         4.92425        -2.41810
O         10.92318        14.74437        -1.91051
O         14.53908         8.38046        -1.44753
H         15.32743         8.82097        -1.86575
O         16.68688        12.29785        -2.48677
H         16.22946        13.08093        -2.88079
O          2.95635        15.57041         1.83062
H          2.37731        15.69238         2.61157
O         18.80596        14.70542         0.57080
H         18.96046        13.75433         0.76510
O          5.33066         5.95398         1.42901
H          5.55666         6.91339         1.52097
O          3.60220        12.27378        -2.94246
H          2.98935        11.57034        -3.26636
O         16.86784         9.64503        -1.88454
H         17.67256         9.21867        -2.26163
O          1.39519         5.52107        -0.44897
H          1.63999         6.03286        -1.26159
O         12.45082        17.97695        -1.59351
H         11.63783        18.52055        -1.70836
O          6.41097        12.40824        -2.81489
H          5.56513        12.25299        -3.29564
O         12.11574        14.88821         1.65706
H         12.97911        14.77296         2.11076
O          8.61224        10.56574         0.86663
H          7.94322        11.21107         1.21031
O          9.66150         9.80337        -2.57015
H          9.79521        10.70969        -2.94289
O          7.28105         8.36178        -2.82347
H          8.10495         8.75687        -3.19533
O          2.22635        14.61672        -2.68514
H          2.82620        13.95952        -3.11990
O         12.10427         3.59378        -2.21243
H         11.58829         4.22401        -2.78119
O         14.55297        19.49785        -0.80935
H         15.25493        19.33155        -1.47544
O          5.87529        16.97759        -2.08806
H          4.90362        17.10353        -2.21750
O         11.02240        12.66923         1.51248
H         11.26203        13.36418         2.17319
O         11.31020         3.96216         1.32890
H         11.91252         3.93515         2.10749
O         21.33379        11.56538         0.53465
H         20.72971        11.35452         1.28540
O         13.95847        17.97038         2.44707
H         13.23176        18.06014         3.09694
O         19.91979         5.34061        -0.66338
H         19.52547         4.44228        -0.82157
O         20.72657         7.18297         2.42796
H         20.45730         6.43688         3.02340
O         20.13372        10.71738        -2.79807
H         19.73579        11.27137        -3.50170
O         13.23529         8.20169         1.93855
H         13.72949         7.53811         2.47963
O         19.77209         4.80941         2.99348
H         18.88925         4.55525         3.37272
O          7.22960         5.70589        -2.84135
H          7.91676         5.11256        -3.22479
O          6.99623        12.61727         0.80708
H          6.12256        13.02533         0.99687
O         14.33117         2.32306        -1.58385
H         13.62627         2.72654        -2.15031
O          9.92732         8.37377         0.84488
H          9.47584         9.15374         1.24663
O         18.89423         2.72158        -0.74812
H         18.97568         1.91852        -1.30595
O         19.52557         8.07281        -1.69593
H         19.66833         7.09741        -1.76897
O         14.38772         0.82029         1.73737
H         14.19801         1.61774         2.28387
O         14.43956         5.86527         2.55217
H         13.95866         5.06509         2.87014
O         11.50704         7.90651        -2.39114
H         12.48047         7.99193        -2.49484
O          6.05566        20.16476         0.87073
H          6.00318        20.18946        -0.10720
O          3.10626        17.14774        -1.50579
H          2.60566        16.53153        -2.09302
O          6.31763         8.24920         0.70601
H          7.25883         8.12701         0.96846
O          6.77981         2.66407         1.70574
H          6.82141         1.91233         2.33394
H          0.65831         1.54464         1.63261
H          0.51954         3.98257         1.30680
H          2.76278         0.29850         1.29996
H          1.45061         6.39522         2.38858
H          1.38724         8.76544         1.78031
H          0.74181        10.48839         0.89272
H          0.65964        12.86919         0.35421
H          0.12993        14.73468        -1.02636
H          0.25988        16.50312         0.65870
H          1.57435        18.27628         1.83981
H          5.15419         0.26681         0.54933
H          3.70035        19.55104         1.99730
H          7.70487         0.28639         0.34089
H          6.29316        18.79835         2.38937
H         10.06841         0.24486        -0.12683
H          8.57632        19.11157         2.30399
H         12.45058         0.25925        -0.04382
H         11.29615        19.84407         1.97192
H         15.10276         0.37778        -0.13773
H         13.63659        19.88814         1.66091
H         17.39317         0.40025         0.53197
H         16.08231        19.41642         2.01287
H         19.80423         0.43495         1.20902
H         18.74557        19.69538         1.74720
H         21.92213         1.69697         1.55247
H         23.16119         3.88636         1.22320
H         23.15510         6.32186         1.11910
H         23.09667         7.92879        -0.11838
H         23.11136        10.18494        -1.01628
H         22.69535        11.62492        -2.72091
H         22.87345        14.08303        -2.84952
H         23.11272        16.25908         0.05794
H         20.83047        19.34952         2.01571
H         22.86176        17.98144         1.89377
