         420
 CSIRO Nanostructure Databank - Neutral Graphene Oxide Data Set
C         28.18613        27.46841         1.25289
C         28.13282        28.87035         1.05232
C         26.97747        29.61830         1.40807
C         27.97844        31.63674         0.48530
C         26.90663        30.96577         1.12486
C         27.80954        33.03253         0.02644
C         26.76505        33.91360         0.53785
C         27.87537        35.92336        -0.34348
C         26.75441        35.24979         0.23592
C         27.80792        37.40767        -0.71346
C         26.60453        38.13725        -0.20572
C         27.93198        40.09368         0.44811
C         26.69050        39.40295         0.29357
C         27.97630        41.42806         1.08113
C         26.74169        42.23626         1.20314
C         27.99707        44.34677         1.18089
C         26.77650        43.59681         1.22457
C         27.98564        45.72982         1.05017
C         30.39791        27.38769         0.24963
C         29.28433        26.74307         0.82339
C         30.41777        28.79104         0.12565
C         29.25142        29.54101         0.47363
C         30.36537        31.62619        -0.27697
C         29.17602        30.94092         0.19687
C         30.35065        33.01916        -0.49807
C         29.07647        33.75312        -0.52780
C         30.32854        35.89709        -0.70337
C         29.06985        35.22294        -0.53719
C         30.31346        37.38734        -0.76871
C         29.09428        38.11773        -0.38264
C         30.42045        40.17999         0.13141
C         29.14934        39.43980         0.08238
C         30.48709        41.53391         0.52560
C         29.29936        42.15874         1.15710
C         30.49746        44.40398         0.88195
C         29.31744        43.66133         1.46773
C         30.43544        45.83001         0.84819
C         29.17820        46.46646         0.96322
C         32.77069        24.55316         0.36739
C         31.61474        25.17351         0.06182
C         32.85860        27.34088        -0.24522
C         31.54029        26.61154        -0.36946
C         32.84976        28.77898        -0.45239
C         31.61969        29.48575        -0.29130
C         32.82049        31.61855        -0.63333
C         31.60022        30.90462        -0.39779
C         32.78947        33.02579        -0.76821
C         31.56290        33.73605        -0.70543
C         32.81041        35.90250        -0.66074
C         31.51787        35.18353        -0.78178
C         32.85757        37.39079        -0.58259
C         31.59142        38.15024        -0.76616
C         32.82758        40.25113        -0.38771
C         31.61205        39.56576        -0.33578
C         32.88110        41.63139        -0.05344
C         31.68881        42.28101         0.37757
C         32.88566        44.47285         0.32643
C         31.68225        43.72610         0.55531
C         32.88570        45.89892         0.44511
C         31.65388        46.58745         0.65127
C         32.85270        48.71187         0.57778
C         31.67244        48.00062         0.70172
C         35.31078        23.19371         0.90002
C         35.24314        24.60941         0.67457
C         34.04553        25.25233         0.37229
C         35.32584        27.28833        -0.32625
C         34.03243        26.64887        -0.01553
C         35.33393        28.75164        -0.74822
C         34.05886        29.49492        -0.66011
C         35.31612        31.63015        -0.85791
C         34.07533        30.91132        -0.73036
C         35.34237        33.02251        -0.94460
C         34.05218        33.72061        -1.09442
C         35.34312        35.93843        -0.93780
C         34.06322        35.22186        -1.07988
C         35.29812        37.38062        -0.93705
C         34.11491        38.09050        -0.87072
C         35.33218        40.20171        -0.49251
C         34.03248        39.60148        -1.05041
C         35.33800        41.70847        -0.44403
C         34.12655        42.37255        -0.14657
C         35.32873        44.52899         0.07377
C         34.11077        43.79591         0.06206
C         35.35382        45.93514         0.19867
C         34.10950        46.63653         0.33837
C         35.33833        48.80111         0.30687
C         34.09672        48.05849         0.40746
C         35.36060        50.21598         0.35504
C         37.74868        23.18830         0.61125
C         36.49925        22.51814         0.87505
C         37.78265        24.60324         0.63197
C         36.51911        25.39152         0.91237
C         37.74445        27.42540         0.13876
C         36.56933        26.72628         0.20740
C         37.77437        28.81981        -0.27329
C         36.60547        29.47725        -0.61091
C         37.82861        31.67590        -0.59390
C         36.62308        30.90373        -1.07749
C         37.80145        33.08934        -0.65463
C         36.56923        33.77808        -0.90200
C         37.81341        35.95024        -0.85877
C         36.55127        35.22209        -0.94607
C         37.84075        37.37965        -1.05421
C         36.56421        38.09314        -1.24054
C         37.80390        40.36250        -1.20714
C         36.52684        39.59515        -1.19796
C         37.81885        41.75161        -0.70668
C         36.58633        42.37785        -0.39997
C         37.89319        44.54724         0.01392
C         36.58946        43.77560         0.06292
C         37.83321        46.01344        -0.04307
C         36.59601        46.67443         0.12300
C         37.80091        48.84386         0.06167
C         36.57527        48.11030         0.15908
C         37.79144        50.26824         0.13057
C         36.54426        50.92476         0.27418
C         40.12095        20.32023         0.09912
C         38.95249        21.02766         0.24845
C         40.14425        23.18605         0.09144
C         38.94396        22.46840         0.31149
C         40.19111        24.59151         0.22372
C         38.99007        25.29730         0.48411
C         40.26801        27.47135         0.23856
C         39.00138        26.79443         0.70131
C         40.26225        28.86047         0.06498
C         39.02099        29.56653        -0.14333
C         40.21587        31.72698         0.24636
C         39.00612        30.97118        -0.25245
C         40.23771        33.17617        -0.15954
C         39.03532        33.83658        -0.44564
C         40.19369        36.05885        -0.11692
C         39.00007        35.26546        -0.57917
C         40.27803        37.44359        -0.71822
C         39.05291        38.09669        -1.02358
C         40.32690        40.29741        -0.94411
C         39.08550        39.56362        -1.22877
C         40.31024        41.73310        -0.85595
C         39.06687        42.44010        -0.67056
C         40.28477        44.59317        -0.58552
C         39.10564        43.85612        -0.45100
C         40.28979        46.03213        -0.41862
C         39.05029        46.72847        -0.19940
C         40.27272        48.86831        -0.17004
C         39.04460        48.15142        -0.11105
C         40.26476        50.29652        -0.07189
C         39.03481        51.00155         0.06162
C         40.25537        53.11541         0.09767
C         39.06645        52.42329         0.13569
C         42.57406        20.29464        -0.09716
C         41.36257        20.98514        -0.07977
C         42.65705        23.15380        -0.10194
C         41.35785        22.45480        -0.40960
C         42.67419        24.56572         0.01352
C         41.45670        25.30626         0.12173
C         42.73949        27.43258         0.09231
C         41.48533        26.72671         0.15798
C         42.75684        28.85272         0.09912
C         41.52154        29.58813         0.03232
C         42.74751        31.72555         0.12267
C         41.52056        30.99048         0.02472
C         42.73072        33.14407         0.10991
C         41.49756        33.89171        -0.05264
C         42.71656        36.08632        -0.04492
C         41.48352        35.28931        -0.12842
C         42.75831        37.46166        -0.60590
C         41.50578        38.13772        -0.81653
C         42.76118        40.30657        -1.17143
C         41.50793        39.57052        -0.97111
C         42.78319        41.75249        -0.92003
C         41.53810        42.44162        -0.79082
C         42.73644        44.58275        -0.66513
C         41.54141        43.88706        -0.71537
C         42.76604        46.06189        -0.91924
C         41.49596        46.75596        -0.49078
C         42.75645        48.88445        -0.34379
C         41.51015        48.16746        -0.33740
C         42.74877        50.30677        -0.21647
C         41.50285        51.00856        -0.10763
C         42.72808        53.13402        -0.02586
C         41.49595        52.42799        -0.01392
C         43.79096        20.98004        -0.16965
C         45.13017        23.08693        -0.06031
C         43.85390        22.39510        -0.12131
C         45.15006        24.51570        -0.00485
C         43.93464        25.26499         0.04342
C         45.22649        27.36320         0.21416
C         43.96683        26.68373         0.09416
C         45.24395        28.82200         0.36055
C         43.99431        29.57515         0.25470
C         45.21830        31.71296         0.65283
C         43.97572        30.98059         0.31079
C         45.28251        33.16341         0.33079
C         43.97136        33.88257         0.59287
C         45.20934        35.97990        -0.40649
C         43.99618        35.37265         0.22818
C         45.23905        37.45651        -0.52967
C         43.98578        38.12720        -0.69083
C         45.30286        40.29861        -0.83163
C         44.06305        39.54580        -1.08513
C         45.26988        41.71217        -0.75584
C         44.01373        42.40468        -0.76219
C         45.27776        44.59604        -0.33526
C         43.98569        43.84341        -0.45135
C         45.26766        46.07400        -0.46334
C         44.04092        46.76708        -0.51326
C         45.24437        48.90202        -0.31700
C         44.00949        48.18085        -0.40290
C         45.23486        50.32912        -0.25019
C         43.97220        51.03903        -0.19519
C         43.92599        52.45545        -0.10542
C         47.56674        23.06553        -0.14413
C         46.34603        22.38855        -0.07928
C         47.61481        24.45754        -0.12776
C         46.40066        25.20171         0.01964
C         47.73018        27.21256         0.66760
C         46.41372        26.61975         0.21078
C         47.72681        28.73614         0.71038
C         46.45366        29.47132         0.54264
C         47.81720        31.64976         0.53904
C         46.51235        30.93075         0.76196
C         47.78577        33.16418         0.20424
C         46.45987        33.81173         0.09738
C         47.74880        35.93743        -0.54723
C         46.48292        35.20292        -0.41716
C         47.69915        37.36146        -0.86505
C         46.45024        38.12992        -0.69929
C         47.75688        40.27654        -0.63876
C         46.51174        39.56976        -0.73761
C         47.74838        41.71029        -0.58222
C         46.51599        42.43488        -0.61434
C         47.75387        44.56509        -0.47617
C         46.53678        43.85155        -0.51677
C         47.75620        46.02909        -0.40670
C         46.50219        46.76021        -0.41851
C         47.70654        48.92655        -0.33947
C         46.49016        48.19771        -0.36162
C         47.67381        50.32286        -0.30696
C         46.46551        51.01405        -0.25364
C         50.17543        24.50181        -0.56272
C         48.87630        25.18598        -0.42418
C         50.22823        27.34200        -0.07686
C         48.90983        26.64924        -0.12330
C         50.23813        28.70728         0.07173
C         49.02970        29.47113         0.43483
C         50.17761        31.57754        -0.36140
C         48.97350        30.89261         0.09713
C         50.20026        33.08776        -0.52676
C         48.96617        33.83764        -0.33475
C         50.23076        35.97356        -0.55352
C         48.97650        35.25639        -0.52270
C         50.25577        37.36828        -0.49282
C         49.03281        38.13010        -0.79358
C         50.20264        40.24767        -0.27147
C         48.99195        39.57608        -0.54837
C         50.21259        41.68103        -0.24935
C         48.98318        42.42059        -0.47171
C         50.24122        44.57737        -0.43921
C         48.97059        43.83877        -0.49179
C         50.22301        46.03799        -0.17298
C         48.96209        46.72274        -0.29815
C         50.14502        48.82039         0.33634
C         49.03024        48.22014        -0.48414
C         51.35518        25.18084        -0.53366
C         52.70403        27.27673        -0.24123
C         51.45114        26.60592        -0.33361
C         52.72653        28.70960        -0.11157
C         51.45666        29.44195        -0.42228
C         52.62574        31.61801         0.04613
C         51.47505        30.91013        -0.12731
C         52.64553        33.07669        -0.06711
C         51.49809        33.77347        -0.37909
C         52.70704        35.95888        -0.05948
C         51.54496        35.24330        -0.70483
C         52.67678        37.35961         0.06761
C         51.45645        38.09380        -0.17935
C         52.62464        40.21949         0.28709
C         51.42883        39.51005        -0.06687
C         52.61005        41.63636         0.36408
C         51.41740        42.34577         0.04341
C         52.53356        44.55795         0.68744
C         51.48621        43.80967        -0.10739
C         52.73170        46.00018         0.17089
C         51.38189        46.71733         0.19065
C         51.27517        48.11165         0.56404
C         55.14362        27.30244        -0.07521
C         53.96960        26.60366        -0.21077
C         55.15387        28.72772         0.08113
C         53.89391        29.41845         0.08957
C         55.15350        31.61954         0.22417
C         53.86605        30.87996         0.49314
C         55.12080        33.07026         0.27817
C         53.90736        33.78496         0.12746
C         55.10318        35.92159         0.51307
C         53.90231        35.21927         0.19273
C         55.07997        37.35757         0.64461
C         53.86932        38.07410         0.43446
C         55.03669        40.20644         0.86732
C         53.84691        39.50036         0.53571
C         55.02426        41.65121         0.97077
C         53.81703        42.36304         0.71283
C         54.96403        44.47862         1.21513
C         53.81578        43.77708         0.82128
C         54.90128        45.92966         1.37731
C         53.85101        46.65602         0.95015
C         56.34117        29.47154         0.12895
C         56.32811        30.88679         0.14348
C         56.31614        33.80608         0.51607
C         56.30281        35.17625         0.65866
C         56.24931        38.09137         0.97975
C         56.22550        39.46425         1.09104
C         56.18100        42.38368         1.34026
C         56.15452        43.76116         1.46839
O         43.46365        39.86712        -2.39062
O         33.94169        34.50713        -2.34993
O         45.61305        35.30142        -1.64079
O         32.91651        36.57438         0.65190
O         48.09403        32.65283         1.56526
O         50.08736        32.17611        -1.72253
O         28.81989        41.39473         2.31903
O         36.34115        38.91408        -2.46962
O         48.52941        29.21973         1.83655
O         35.38703        27.67722        -1.74860
O         45.78854        31.35581         1.95616
O         44.57245        44.15644         0.89671
O         37.38867        43.98733         1.28509
O         43.41370        36.15595         1.30899
O         30.92161        37.89772        -2.04556
O         48.43766        37.73962        -2.07615
O         51.23083        44.22009        -1.49821
O         38.51070        40.13243        -2.46425
O         48.61073        26.21673        -1.48079
O         28.06761        33.17133        -1.40374
O         31.24565        26.59306        -1.81065
H         32.05480        26.28815        -2.27371
O         42.77914        46.17708        -2.40517
H         41.92919        45.81279        -2.73436
O         53.18499        45.98639        -1.20269
H         52.54651        45.43013        -1.71621
O         33.89477        39.91376        -2.45164
H         34.65911        39.49869        -2.92252
O         29.50151        43.78752         2.91571
H         29.08958        42.98274         3.31245
O         27.70241        37.43612        -2.18570
H         28.59713        37.26743        -2.55472
O         51.98492        44.69590         2.03449
H         52.09717        43.84196         2.50207
O         49.42195        48.42316        -1.89319
H         50.28291        47.96934        -2.02138
O         36.52307        25.69670         2.36224
H         36.48667        24.83802         2.83621
O         51.83493        35.28888        -2.15739
H         51.66736        36.20569        -2.46442
O         38.97283        27.01163         2.15136
H         38.12073        26.62346         2.47845
O         35.47106        39.76287         0.89155
H         34.79117        40.21969         1.43095
O         47.90373        26.73388         2.03088
H         48.25303        27.49197         2.55749
O         51.35904        29.39825        -1.89796
H         50.84996        30.18531        -2.19717
O         36.75967        30.82810        -2.54924
H         37.47934        30.19214        -2.74828
O         39.91933        36.32324         1.32467
H         39.89011        35.45126         1.77560
O         41.24851        22.50680        -1.89451
H         42.01916        22.01550        -2.25232
O         53.75850        30.85566         1.96782
H         54.56261        30.40994         2.31013
O         40.06039        31.76308         1.72072
H         40.08062        30.83383         2.03778
O         43.85104        33.79516         2.04317
H         43.42847        34.63733         2.34185
H         27.32800        26.95656         1.71124
H         26.12522        29.10330         1.87359
H         25.98677        31.51686         1.36338
H         25.97171        33.50082         1.17674
H         25.89947        35.85407         0.57158
H         25.61473        37.68075        -0.34602
H         25.76303        39.90455         0.60363
H         25.76917        41.72624         1.22503
H         25.82992        44.15923         1.24355
H         27.02237        46.25884         0.99024
H         29.27949        25.65130         0.94125
H         29.10676        47.55982         0.89616
H         32.74597        23.48532         0.62470
H         30.68883        24.58161         0.02407
H         32.80661        49.80733         0.63197
H         30.74038        48.55996         0.85627
H         34.38422        22.61422         1.01156
H         34.42470        50.77933         0.46355
H         36.48519        21.42800         1.00238
H         36.49901        52.02049         0.32357
H         40.10975        19.22123         0.15389
H         38.01448        20.47400         0.38335
H         40.25792        54.21307         0.16151
H         38.13045        52.98935         0.22933
H         42.57512        19.19853        -0.00281
H         42.71797        54.23127         0.04259
H         44.71554        20.38928        -0.17988
H         44.85759        53.03601        -0.09573
H         48.49113        22.47905        -0.23312
H         46.36154        21.29139        -0.09717
H         48.61085        50.89513        -0.33925
H         46.49424        52.11097        -0.23020
H         50.19237        23.41013        -0.69172
H         50.09065        49.87591         0.63883
H         52.28477        24.60920        -0.66720
H         52.11873        48.59333         1.07775
H         56.10479        26.76750        -0.08090
H         54.00992        25.50977        -0.30823
H         55.75891        46.42416         1.85876
H         53.87816        47.75063         1.04849
H         57.30712        28.94888         0.07809
H         57.29432        31.40292         0.04879
H         57.26848        33.27276         0.63768
H         57.24835        35.68862         0.87931
H         57.19764        37.56812         1.15789
H         57.15758        39.98227         1.35091
H         57.12248        41.85822         1.54661
H         57.06151        44.30389         1.77042
