         671
 CSIRO Nanostructure Databank - Neutral Graphene Oxide Data Set
C          5.93229        31.81178        -0.84434
C          5.97369        33.18159        -0.78887
C          8.28129        27.42035        -0.78909
C          8.28397        28.84201        -0.51284
C          7.08017        29.62085        -0.64762
C          8.43930        31.70843        -0.60088
C          7.10169        31.00134        -0.64576
C          8.34438        33.16129        -0.20155
C          7.18905        33.90130        -0.45535
C          8.38021        36.03842        -0.05506
C          7.19067        35.32391        -0.28101
C          8.43194        37.45842         0.02125
C         10.67211        23.02606        -1.18337
C         10.62813        24.52305        -0.91179
C          9.45692        25.23440        -0.93219
C         10.65371        27.27346        -0.05030
C          9.41750        26.65743        -0.66157
C         10.71324        28.77503        -0.15591
C          9.49288        29.48445        -0.18969
C         10.83240        31.60329         0.16191
C          9.47280        30.93487         0.22590
C         10.85921        33.04954         0.35743
C          9.56214        33.84519         0.21518
C         10.84446        35.95696         0.05043
C          9.62776        35.30977         0.04141
C         10.89292        37.38878         0.15485
C          9.64702        38.14099         0.17908
C         10.88222        40.26229         0.48632
C          9.68710        39.56559         0.28086
C         10.95850        41.67591         0.53863
C         13.28363        18.91944        -0.00984
C         13.13886        20.24628        -0.50430
C         11.97197        20.94329        -0.31050
C         13.16541        23.06507        -0.95470
C         11.88734        22.43358        -0.43424
C         13.13654        24.51599        -0.92924
C         11.90391        25.21574        -0.73335
C         13.15240        27.29431        -0.34553
C         11.92631        26.58606        -0.45248
C         13.16926        28.70983        -0.08579
C         11.94366        29.44640        -0.04729
C         13.31146        31.56211         0.13952
C         12.01693        30.88854         0.08622
C         13.31804        33.01396         0.08644
C         12.13699        33.74184         0.16310
C         13.38716        35.91415         0.07253
C         12.11170        35.19165        -0.25254
C         13.37805        37.32808         0.21166
C         12.12096        38.03929         0.29277
C         13.43871        40.20976         0.65143
C         12.12256        39.47033         0.64481
C         13.44143        41.68279         0.56194
C         12.17496        42.39649         0.59351
C         13.39758        44.55189         0.48986
C         12.19757        43.81339         0.48170
C         13.42458        45.94510         0.32387
C         15.96057        15.06298         1.32761
C         15.87091        16.32450         0.71289
C         14.63597        16.99219         0.60059
C         15.70380        18.90482        -0.58629
C         14.51789        18.26094        -0.00710
C         15.61476        20.16987        -1.13371
C         14.26173        20.84158        -1.32692
C         15.57422        23.06938        -1.52995
C         14.31702        22.35953        -1.19406
C         15.59543        24.57447        -1.32085
C         14.34166        25.23175        -0.93770
C         15.62547        27.22159        -0.28615
C         14.36914        26.60010        -0.59606
C         15.50935        28.48425         0.30452
C         14.40020        29.36803         0.14306
C         15.79194        31.54423        -0.00725
C         14.51807        30.82747         0.17736
C         15.77643        33.00054        -0.15667
C         14.58395        33.72229        -0.04832
C         15.82894        35.88077        -0.04257
C         14.59051        35.17568         0.00157
C         15.82938        37.31197        -0.00966
C         14.61070        38.04212         0.17303
C         15.78136        40.21127        -0.10487
C         14.64762        39.48272         0.23436
C         15.86147        41.65063         0.08818
C         14.64434        42.35100         0.44813
C         15.91368        44.52453         0.34307
C         14.68244        43.81377         0.81548
C         15.94699        46.01774         0.57935
C         14.62401        46.71342         0.29666
C         15.83807        48.86945        -0.06886
C         14.62510        48.08464         0.06923
C         15.84511        50.23051        -0.27137
C         18.53524        11.14233         2.80089
C         18.47060        12.39281         2.23300
C         17.24343        13.10213         2.04211
C         18.39742        15.00110         0.92370
C         17.19063        14.37283         1.45294
C         18.32778        16.25676         0.26374
C         17.05853        16.94930         0.15048
C         18.15594        18.72626        -1.15673
C         16.95647        18.16917        -0.51068
C         18.10917        20.13462        -1.73636
C         16.77529        20.86342        -1.84124
C         18.06593        23.00843        -1.50652
C         16.87354        22.33755        -1.50031
C         18.08849        24.52709        -1.62702
C         16.88042        25.25941        -1.06004
C         18.24766        27.25463        -0.31806
C         16.89689        26.54363        -0.55844
C         18.26762        28.76845        -0.51948
C         17.31650        29.55726         0.10893
C         18.15912        31.61718        -0.93104
C         17.04005        30.91724        -0.18611
C         18.23856        33.06520        -0.55975
C         17.03084        33.73196        -0.31784
C         18.26423        35.86963        -0.45932
C         17.04811        35.16566        -0.24760
C         18.24838        37.31081        -0.47695
C         17.03670        38.01160        -0.23406
C         18.24543        40.22372        -0.76675
C         16.97584        39.45866        -0.51081
C         18.22473        41.76088        -0.85688
C         17.04561        42.37524        -0.11158
C         18.32962        44.53128        -0.11414
C         17.04564        43.82204        -0.00726
C         18.35193        45.94351        -0.02658
C         17.05072        46.66513        -0.25853
C         18.30213        48.82460         0.04312
C         17.11594        48.15106        -0.05005
C         18.34326        50.27207        -0.05322
C         17.12658        50.95115        -0.63279
C         18.34214        53.12919        -0.24608
C         17.14897        52.43526        -0.38420
C         18.38360        54.55261        -0.21851
C         21.15685         7.02909         3.97074
C         21.06052         8.25907         3.35890
C         19.69832         8.92099         3.21417
C         20.85850        10.78630         1.93010
C         19.85260        10.44283         3.05874
C         20.99054        12.28686         1.74995
C         19.72224        13.08785         1.82812
C         20.80991        14.85494         0.45430
C         19.63846        14.33948         1.05723
C         20.75399        16.13659        -0.16861
C         19.52408        16.84623        -0.24322
C         20.60472        18.77806        -1.38916
C         19.47273        18.14394        -0.87027
C         20.57880        20.14488        -1.83439
C         19.37767        20.88196        -1.78138
C         20.55768        23.04052        -1.67464
C         19.35593        22.32202        -1.68157
C         20.59093        24.47683        -1.44307
C         19.40092        25.14618        -1.23060
C         20.65266        27.35524        -1.30921
C         19.35170        26.61295        -1.14728
C         20.69454        28.78457        -0.97928
C         19.47253        29.48216        -0.88356
C         20.70205        31.58306        -0.69410
C         19.47684        30.89539        -0.82618
C         20.72831        33.03675        -0.64022
C         19.48924        33.74744        -0.61613
C         20.74848        35.85748        -0.77809
C         19.50081        35.17253        -0.61119
C         20.69979        37.32141        -0.93113
C         19.44899        38.01317        -0.70165
C         20.73947        40.16485         0.01755
C         19.46857        39.45395        -0.39873
C         20.65261        41.67464         0.28523
C         19.64276        42.40112        -0.63518
C         20.74696        44.50608         0.19562
C         19.54685        43.83696        -0.14674
C         20.74553        45.89733         0.38370
C         19.55182        46.62185         0.18418
C         20.67559        48.78813         0.88139
C         19.63094        48.11177         0.01098
C         20.67158        50.27708         0.79773
C         19.51270        50.96282         0.16667
C         20.81476        53.05261        -0.01323
C         19.60596        52.39712        -0.05070
C         20.90042        54.52752        -0.32929
C         19.60110        55.26768        -0.09804
C         20.81751        57.36409         0.64684
C         19.60006        56.61613         0.19626
C         20.88056        58.75143         0.08889
C         23.79969         4.46003         4.91439
C         22.53012         5.12413         4.82542
C         23.63904         7.05489         3.80328
C         22.40971         6.35048         4.20607
C         23.47938         8.11078         2.76524
C         22.22672         8.89263         2.76936
C         23.38616        10.70626         1.52333
C         22.19455        10.10699         2.11080
C         23.33257        12.00202         0.90839
C         22.11308        12.78781         0.93051
C         23.15990        14.60751        -0.37375
C         22.01722        14.05474         0.37120
C         23.15650        16.04284        -0.70596
C         21.94581        16.72236        -0.72472
C         23.16246        18.66054        -1.87253
C         21.85962        18.00168        -1.44470
C         23.18367        20.10767        -2.37126
C         21.82493        20.84397        -2.23794
C         23.10499        23.06188        -1.78925
C         21.81711        22.36978        -2.05432
C         23.10616        24.43890        -1.49094
C         21.86484        25.18893        -1.41087
C         23.12651        27.31590        -1.09836
C         21.90251        26.58307        -1.30572
C         23.14859        28.69883        -0.86501
C         21.91601        29.46092        -0.81920
C         23.14771        31.53891        -0.10350
C         21.90792        30.85643        -0.60107
C         23.21106        33.02408        -0.41427
C         21.96140        33.73483        -0.59307
C         23.27065        35.86926        -0.64941
C         21.96608        35.16049        -0.71848
C         23.31526        37.36781        -0.62081
C         22.03348        38.13143        -0.76193
C         23.27186        40.20978        -0.26693
C         21.99911        39.47355        -0.22133
C         23.25821        41.68497        -0.07609
C         21.98893        42.40583         0.17402
C         23.29140        44.46220         0.66063
C         22.00092        43.76301         0.27790
C         23.29586        45.96205         0.55472
C         21.99132        46.58858         0.80564
C         23.26786        48.77141         1.08288
C         21.97634        48.05562         1.08940
C         23.18027        50.25100         1.38380
C         22.02190        50.90140         0.63854
C         23.43758        53.03124         0.13734
C         22.09324        52.30145         0.11583
C         23.32985        54.51704         0.36230
C         22.11208        55.21300         0.27319
C         23.33284        57.32299         0.50763
C         22.10502        56.60711         0.43824
C         23.33732        58.74297         0.28998
C         22.10494        59.42215        -0.01880
C         23.38045        61.48167        -0.43096
C         22.16426        60.79948        -0.40021
C         24.96020         5.00676         4.44551
C         26.13048         6.91300         3.15227
C         24.98862         6.38417         3.93896
C         26.03383         8.05825         2.41256
C         24.70585         8.66252         2.11346
C         25.82015        10.60743         1.05595
C         24.63032        10.02857         1.56580
C         25.75882        11.89104         0.47752
C         24.52622        12.56490         0.38628
C         25.70590        14.70481        -0.33213
C         24.47901        13.86805        -0.31905
C         25.64948        16.03788        -0.62132
C         24.40213        16.70843        -0.99929
C         25.71348        18.72047        -1.79174
C         24.41601        18.02289        -1.44311
C         25.59480        20.23487        -1.73276
C         24.37255        20.89948        -1.86668
C         25.56536        23.04477        -1.66655
C         24.33470        22.32798        -1.79274
C         25.56310        24.44881        -1.43444
C         24.33934        25.13195        -1.28531
C         25.54068        27.19560        -0.69951
C         24.36443        26.56033        -1.03521
C         25.70678        28.68250        -0.82267
C         24.39280        29.43024        -0.69952
C         25.70625        31.52183        -0.41124
C         24.39685        30.77933        -0.46210
C         25.62720        32.94649         0.10891
C         24.41547        33.69719        -0.20142
C         25.63932        35.81948         0.17202
C         24.46704        35.14246        -0.14956
C         25.70851        37.26160         0.22023
C         24.39918        38.01096         0.23743
C         25.74001        40.12999         0.01858
C         24.54414        39.48123        -0.05257
C         25.78164        41.61422        -0.33482
C         24.57700        42.32802         0.33391
C         25.77874        44.58329         0.30940
C         24.50330        43.83181        -0.03165
C         25.75680        45.92484         0.65183
C         24.47935        46.65339         0.70920
C         25.74772        48.75604         1.26316
C         24.47453        48.09039         0.98991
C         25.66024        50.20027         1.76691
C         24.49301        50.93957         1.14579
C         25.76530        53.09181         0.98963
C         24.42392        52.43868         1.21843
C         25.79689        54.46058         0.66687
C         24.54033        55.21113         0.58997
C         25.87801        57.32380         0.78887
C         24.55629        56.61205         0.61446
C         25.79842        58.77669         0.43339
C         24.59257        59.44399         0.20941
C         24.57702        60.83593        -0.13164
C         27.17309         8.67409         1.76384
C         28.26798        10.39660         0.32163
C         27.07673         9.86557         1.09978
C         28.28157        11.90016         0.22809
C         26.97351        12.53837        -0.16183
C         28.23272        14.80866         0.30305
C         26.95542        14.03154         0.13127
C         28.12218        16.26173         0.00021
C         26.77427        16.93770        -0.18046
C         28.02726        18.96254        -0.89586
C         26.89258        18.22284        -0.96450
C         28.07827        20.23019        -1.65302
C         26.80479        20.96703        -1.72134
C         28.06941        23.10403        -1.76299
C         26.81370        22.36533        -1.72435
C         28.04126        24.52034        -1.46458
C         26.81565        25.12470        -1.22396
C         28.07249        27.07618        -0.09676
C         26.77530        26.41971        -0.53805
C         28.09155        28.51915         0.42870
C         26.75513        29.23357         0.14219
C         28.01780        31.37315         0.73272
C         26.75036        30.70137         0.30461
C         27.96970        32.85104         0.98926
C         26.76220        33.59006         0.54280
C         28.13733        35.73908         0.76719
C         26.93370        35.04691         0.17674
C         28.05130        37.20153         1.09176
C         26.89345        37.94013         0.44525
C         28.09599        40.08336         0.74703
C         26.95343        39.39914         0.39945
C         28.06583        41.58011         0.97860
C         27.06054        42.33314         0.11543
C         28.21386        44.47439         0.92641
C         27.02847        43.81791         0.35001
C         28.17660        45.88291         1.13691
C         26.98735        46.62464         1.00680
C         28.21143        48.70660         1.87827
C         26.94139        48.05346         1.29128
C         28.26043        50.23205         1.69790
C         26.96315        50.98509         1.63905
C         28.18774        52.98931         0.76149
C         26.95761        52.36147         1.08230
C         28.20208        54.35947         0.41698
C         27.02442        55.10947         0.40777
C         27.00859        56.57717         0.03013
C         29.43561        12.61215         0.25302
C         30.76229        14.60859        -0.18080
C         29.52958        14.06493         0.13259
C         31.07534        16.02392        -0.07065
C         29.16788        17.08614         0.23710
C         30.62012        19.09570        -0.48957
C         29.25429        18.48412        -0.20106
C         30.60153        20.47720        -1.11262
C         29.35532        20.98285        -1.77190
C         30.52508        23.19750        -2.15777
C         29.27760        22.44865        -1.91279
C         30.51973        24.66984        -1.80386
C         29.27760        25.25375        -1.25097
C         30.60110        27.19212        -0.28957
C         29.30846        26.48103        -0.62760
C         30.48303        28.70170        -0.35844
C         29.30655        29.35083        -0.00345
C         30.47470        31.55535         0.32573
C         29.29157        30.74677         0.32282
C         30.50693        32.85066         0.84245
C         29.27052        33.59149         1.29994
C         30.59634        35.74442         1.10886
C         29.30946        35.06111         0.91741
C         30.56692        37.21421         1.09440
C         29.37845        37.89718         1.01706
C         30.59945        40.07038         0.74043
C         29.33147        39.39092         1.26988
C         30.59589        41.56323         1.00230
C         29.41464        42.27296         0.93790
C         30.67316        44.39743         1.00044
C         29.41398        43.71737         1.00241
C         30.62517        45.87941         0.73735
C         29.49011        46.52447         1.55383
C         30.66752        48.68951         1.17177
C         29.48057        48.02896         1.40915
C         30.78814        50.19400         1.21248
C         29.46191        50.90645         1.14828
C         29.41146        52.21283         0.77007
C         31.93536        16.85193        -0.74901
C         33.04113        19.00810        -1.08500
C         31.90299        18.31944        -0.69339
C         33.13640        20.42891        -1.34365
C         31.86568        21.19440        -1.41445
C         33.08584        23.22392        -2.24500
C         31.81245        22.38398        -2.35502
C         33.04496        24.72973        -2.00224
C         31.79023        25.39041        -1.58550
C         33.02798        27.42786        -1.03209
C         31.80582        26.64141        -1.02422
C         32.99725        28.80778        -0.81270
C         31.69150        29.49529        -0.64761
C         32.96339        31.79142        -0.30962
C         31.67959        30.97271        -0.31421
C         33.06148        32.82957         0.80555
C         31.77701        33.50266         1.35486
C         33.07010        35.72356         1.54586
C         31.77471        35.03620         1.24318
C         33.05736        37.24514         1.80947
C         31.80898        37.96872         1.31632
C         33.01916        40.09206         1.78922
C         31.81136        39.33191         1.28121
C         33.02126        41.56709         1.46573
C         31.86020        42.25453         1.17777
C         33.14000        44.42072         1.09721
C         31.86484        43.70473         1.07981
C         33.13332        45.85012         0.98527
C         31.94363        46.58017         0.94111
C         31.89991        47.97679         1.01023
C         34.30994        21.09719        -1.62340
C         35.52031        23.25216        -1.84645
C         34.34936        22.51944        -1.91433
C         35.53485        24.69821        -1.79374
C         34.30436        25.39508        -1.64867
C         35.48756        27.50622        -1.31673
C         34.27583        26.76444        -1.31548
C         35.45022        28.91162        -1.09189
C         34.20756        29.57618        -0.81674
C         35.44226        31.64782        -0.44379
C         34.22760        30.95803        -0.45809
C         35.66135        32.93189         0.32335
C         34.37698        33.54456         0.88356
C         35.68901        35.80397         1.06635
C         34.38762        35.00524         1.30198
C         35.45280        37.29557         0.84473
C         34.30186        37.97423         1.29879
C         35.39415        40.15710         0.88059
C         34.26822        39.38046         1.31327
C         35.43113        41.55220         1.03310
C         34.32151        42.28385         1.73365
C         34.30771        43.72878         1.33413
C         36.73690        25.44103        -1.75427
C         37.92163        27.63161        -1.68916
C         36.72536        26.84075        -1.59304
C         37.88763        29.00003        -1.54473
C         36.65124        29.66122        -1.22726
C         37.73159        31.89785        -1.31854
C         36.62039        31.05775        -0.97324
C         37.70188        33.27345        -1.08093
C         36.61397        33.88319        -0.33922
C         37.69758        36.05084        -0.49284
C         36.61601        35.21480        -0.00212
C         37.68049        37.41503        -0.26660
C         36.54468        38.06375         0.32648
C         36.50768        39.46117         0.34120
C         39.14954        29.83863        -1.64427
C         40.03101        32.13278        -2.30633
C         38.81744        31.25638        -2.15302
C         39.99398        33.45621        -2.05284
C         38.82388        34.09885        -1.46847
C         38.79649        35.44728        -1.19436
O         33.85524        35.10577         2.65965
O         28.87527        20.17563        -2.89881
O         27.79331        31.87552         2.09483
O         19.70572        27.17828        -2.44204
O         31.41799        30.52160        -1.69107
O         27.41578        14.39064         1.47195
O         22.38246        17.85010        -2.82207
O         23.69496        36.68372        -1.83156
O         21.88677        47.08563         2.20704
O         26.17811        29.83030         1.33928
O         16.55499        28.93760         1.11046
O         29.97081        19.26081         0.81457
O         15.48371        23.98486        -2.68728
O         23.83843         7.68551         1.40249
O         10.07919        33.46821         1.57552
O         27.74740        50.93187         2.89025
O         27.30705        26.25362         0.84041
O         12.84267        39.72806         1.91110
O         30.28958        16.63236         0.92400
O         19.86535        39.50993         1.04594
O         17.52708        39.67033        -1.90342
O         21.41547        37.91352        -2.06565
O         31.16542        21.46136        -0.16357
O         23.27619        41.14211        -1.43970
O         20.28633        49.58269         2.02828
O         33.95078        32.57254         1.91738
O         24.51433         7.40545         4.91778
O         33.14422        24.15561        -3.36388
O         30.35594        24.21389        -3.19809
O         21.66755        21.73400        -3.37379
O         27.57307        43.14841        -0.96603
O         22.21800        51.12662        -0.79319
O         23.65683        13.80983        -1.52891
O         20.73254        13.13031         2.92238
O         18.04976        18.96979        -2.61987
O         10.52941        27.01703         1.40267
H          9.74867        27.52183         1.71810
O         31.76428        33.22761         2.77893
H         32.64669        33.50466         3.12341
O         29.72880        46.22918         2.94998
H         29.12988        46.81437         3.47312
O         25.40117        50.06314         3.21681
H         25.58801        50.94044         3.61899
O         23.92061        52.84376         2.52594
H         23.35192        52.10477         2.86898
O         33.01995        37.38979         3.26242
H         33.54170        36.63988         3.63659
O         18.99028         8.35651         2.10691
H         19.36256         8.75236         1.28384
O         17.23565        50.82037        -2.10901
H         18.07399        51.25749        -2.37388
O         28.19713         9.88066        -1.02437
H         27.61682        10.48475        -1.54319
O         31.67705        50.65296         0.18796
H         31.33461        50.34951        -0.67745
O         27.58686        41.74694         2.34651
H         28.13626        41.16095         2.91763
O         36.42736        32.49432         1.49480
H         35.79298        32.03325         2.09005
O          9.05873        30.94063         1.62048
H          9.28117        31.83697         1.98021
O         24.79092        42.11152         1.73481
H         24.23477        42.74602         2.24981
O         32.90294        32.62988        -1.50511
H         32.51503        32.06706        -2.21656
O          8.94300        31.73415        -1.97701
H          8.25343        32.14586        -2.53951
O         29.32657        33.72154         2.74759
H         29.15874        32.82815         3.12486
O         29.30927        39.55787         2.73048
H         30.20058        39.31395         3.06965
O         23.06155        31.46608         1.36863
H         23.95893        31.62965         1.73203
O         22.81362        50.38394         2.80263
H         23.54738        49.95232         3.31030
O         32.97136        40.04862         3.25882
H         33.07815        39.09653         3.52787
O         17.88117        42.10701        -2.23192
H         17.41899        41.31679        -2.60970
O         26.36527        17.32852         1.17919
H         26.53813        16.55460         1.76200
O         10.77276        22.77294        -2.58560
H         11.67545        23.01110        -2.88442
O         16.66386        46.45642        -1.65018
H         17.14830        47.10006        -2.20753
O         20.17276        48.30394        -1.34467
H         19.60162        47.81440        -1.97350
O         12.09557        35.12381        -1.74134
H         12.94811        34.72890        -2.02707
O         36.45206        35.71327         2.30342
H         35.81177        35.57641         3.03603
O         24.04400        52.86561        -1.16549
H         23.80356        51.95620        -1.46529
O         31.77685        21.85186        -3.69235
H         31.79329        22.62518        -4.29971
O         27.68365        37.24548         2.52767
H         28.07102        38.07278         2.90489
O         21.13635        54.59421        -1.77805
H         21.96493        54.09831        -1.96176
O         30.58051        39.89159        -0.70169
H         31.32860        40.39568        -1.08383
O         38.27794        31.04978        -3.50052
H         38.07024        31.93063        -3.87740
O         17.76679        31.57925        -2.35294
H         18.51064        31.94685        -2.87566
O         14.77254        43.83751         2.29858
H         14.01609        43.31482         2.64436
O         13.86777        20.59905        -2.71130
H         14.66216        20.81064        -3.26797
O         26.26594        57.24378         2.19855
H         25.53918        57.62553         2.73374
O         11.71451        22.90001         0.94010
H         12.46948        22.57448         1.47300
O         23.47155        19.98426        -3.79402
H         22.77597        19.40007        -4.17293
O         20.29135        10.28466         0.67733
H         21.01141        10.23166         0.01338
O         27.32121        34.97060        -1.25650
H         26.51617        34.75722        -1.77641
O         26.18287        31.68579        -1.78143
H         25.47747        32.12288        -2.30258
O         26.82123        56.69849        -1.38394
H         26.06431        56.13376        -1.64466
O         34.59818        42.24672         3.17912
H         34.11050        41.46677         3.54655
O         25.70041        41.70987        -1.76859
H         26.48490        42.23208        -2.06842
O         16.44859        20.86316        -3.27387
H         16.79992        20.01259        -3.63094
O         20.67293        57.49618         2.12566
H         21.43035        58.03037         2.44710
O         25.97031        18.37951        -3.18351
H         25.27291        18.82820        -3.71921
O         16.26761        46.21534         1.97689
H         15.75244        45.55029         2.49134
O         28.25374        28.41158         1.86213
H         27.56075        28.98353         2.27549
O         18.60881        26.98928         1.06764
H         17.96762        27.48526         1.62689
O         24.25733        43.95235        -1.44709
H         24.55405        43.11574        -1.88894
O         26.27291        28.88911        -2.15179
H         25.60966        28.60811        -2.81659
O         20.38593        10.89541         4.32044
H         20.52590        11.87155         4.24814
O         20.29991        42.42843        -1.91355
H         19.60071        42.58727        -2.59235
O         23.40352        44.27263         2.11337
H         22.72111        44.83544         2.54302
O         30.31611        46.04979        -0.67733
H         29.58222        45.43864        -0.90496
O         40.09170        29.23521        -2.52739
H         39.73297        29.34495        -3.43443
O         26.85195        12.35276        -1.60638
H         25.96149        12.66119        -1.88510
O         18.03763        24.76341        -3.07206
H         17.14749        24.44959        -3.37306
O         28.12954        48.43886         3.31008
H         27.61243        49.19045         3.69480
O         20.23521        41.88959         1.65024
H         19.93507        41.02334         2.01537
O         23.87522        37.88584         1.59967
H         24.56092        38.21277         2.22093
O         30.84464        26.89145         1.12749
H         30.05476        27.19651         1.63372
H          4.97034        31.30482        -1.01615
H          5.05032        33.76135        -0.93261
H          7.34482        26.95738        -1.13714
H          6.12723        29.09175        -0.80625
H          6.24420        35.87328        -0.39237
H          7.49461        38.03198        -0.03477
H          9.72782        22.54780        -0.82313
H          8.51129        24.72375        -1.17309
H          8.74347        40.12608         0.19792
H         10.02057        42.24802         0.46637
H         12.42381        18.44278         0.48588
H         11.14218        20.44969         0.22192
H         11.24549        44.34508         0.32926
H         12.46620        46.47138         0.17946
H         15.04568        14.59624         1.72187
H         13.73352        16.51842         1.01493
H         13.66211        48.60324        -0.06793
H         14.89723        50.78856        -0.32112
H         17.60706        10.65258         3.13343
H         16.30795        12.63547         2.38524
H         16.21541        53.00239        -0.52672
H         17.43416        55.11003        -0.19904
H         20.23845         6.55099         4.34556
H         19.09419         8.71265         4.13398
H         18.63358        57.13645         0.29660
H         19.94574        59.28395        -0.14064
H         23.81434         3.43752         5.31882
H         21.63281         4.59833         5.18253
H         23.39505        62.54554        -0.70714
H         21.23079        61.32365        -0.64924
H         25.88441         4.41090         4.41737
H         27.10861         6.41963         3.26580
H         26.73890        59.34818         0.39953
H         25.52928        61.38248        -0.18122
H         28.14328         8.15593         1.81408
H         29.21807        10.01770         0.77800
H         29.16166        54.84353         0.18183
H         27.98710        57.05587         0.27972
H         30.38300        12.07116         0.41153
H         31.57045        13.91224        -0.45941
H         31.27342        50.46880         2.19164
H         30.33978        52.70141         0.43656
H         32.67758        16.40621        -1.42955
H         33.96121        18.42127        -1.23820
H         34.09174        46.38608         1.07044
H         32.83399        48.55851         1.01081
H         35.27045        20.56309        -1.55485
H         36.47347        22.72482        -1.68547
H         36.32828        42.10190         0.71071
H         35.26181        44.27619         1.38276
H         37.69667        24.92262        -1.89745
H         38.87798        27.13445        -1.90913
H         38.50753        38.04026        -0.63334
H         37.36871        40.03082        -0.03739
H         39.62757        29.90756        -0.63125
H         40.93582        31.66895        -2.72706
H         40.88048        34.08249        -2.23703
H         39.64638        36.08498        -1.48034
