         420
 CSIRO Nanostructure Databank - Neutral Graphene Oxide Data Set
C         27.87316        27.57760        -0.39033
C         27.85363        28.95969        -0.70937
C         26.69700        29.73425        -0.61141
C         27.90357        31.77430        -1.26604
C         26.71361        31.09513        -0.93449
C         27.90994        33.20980        -1.46192
C         26.70681        33.95135        -1.53141
C         27.92901        36.05881        -1.58244
C         26.71288        35.33179        -1.58428
C         27.93807        37.50425        -1.38650
C         26.73650        38.23754        -1.22406
C         27.95219        40.24481        -0.52771
C         26.74146        39.56190        -0.82949
C         27.95322        41.57913         0.00646
C         26.77344        42.31493         0.28871
C         28.01941        44.40113         0.79622
C         26.78428        43.61253         0.76886
C         28.09594        45.71759         1.47268
C         30.33115        27.43432        -0.59137
C         29.04674        26.85723        -0.33334
C         30.35790        28.76473        -1.25611
C         29.08161        29.57868        -1.24831
C         30.37380        31.72587        -1.41876
C         29.14086        31.05724        -1.33568
C         30.40221        33.17396        -1.50794
C         29.14653        33.90457        -1.56424
C         30.41740        36.03386        -1.77338
C         29.13816        35.32103        -1.63729
C         30.44208        37.54189        -1.54744
C         29.16299        38.20919        -1.21457
C         30.47849        40.23797        -0.65580
C         29.17327        39.53733        -0.76867
C         30.50095        41.59528        -0.03432
C         29.23254        42.11773         0.59445
C         30.55028        44.16237         1.23734
C         29.30648        43.63247         0.65533
C         30.51629        45.38899         2.12108
C         29.23324        46.18284         2.01077
C         32.67372        24.85805         0.76422
C         31.51753        25.47338         0.35435
C         32.86296        27.38481        -0.54623
C         31.51292        26.78782        -0.20944
C         32.84582        28.88713        -0.74441
C         31.68911        29.47394        -1.52700
C         32.82548        31.67817        -1.28962
C         31.62801        30.99500        -1.36962
C         32.88777        33.16055        -1.08847
C         31.62274        33.86695        -1.50177
C         32.88913        35.97829        -1.52168
C         31.67362        35.28835        -1.59701
C         32.92445        37.38579        -1.23130
C         31.72312        38.13841        -1.12319
C         32.95546        40.10803        -0.31425
C         31.74257        39.47535        -0.67986
C         32.97741        41.44106         0.26286
C         31.76864        42.14364         0.50087
C         32.98393        44.03186         1.63236
C         31.72372        43.41881         1.14521
C         33.01343        45.50497         1.81092
C         31.79911        46.19744         1.97510
C         33.03681        48.27190         2.19581
C         31.82913        47.59124         2.15339
C         35.18730        23.45317         1.66902
C         35.13856        24.91832         1.40059
C         33.92367        25.57237         0.82130
C         35.20785        27.67530         0.49214
C         33.97809        26.86451         0.34662
C         35.22073        29.07399        -0.05155
C         34.00352        29.60668        -0.69879
C         35.30986        31.59050        -1.45096
C         34.08281        30.97839        -1.17932
C         35.33245        33.04508        -1.73113
C         34.16859        33.77104        -1.60628
C         35.41260        35.93481        -1.40717
C         34.16079        35.25463        -1.90056
C         35.40233        37.31131        -1.04001
C         34.16721        38.03644        -0.93101
C         35.42612        40.04470        -0.21511
C         34.18074        39.38892        -0.47892
C         35.44646        41.39404         0.26971
C         34.22632        42.03328         0.59584
C         35.51871        44.12151         1.23358
C         34.27755        43.32776         1.30085
C         35.50655        45.49790         1.55081
C         34.25847        46.19199         1.81863
C         35.52899        48.31200         2.11886
C         34.26840        47.59690         2.04925
C         35.58062        49.68177         2.46250
C         37.66608        23.35492         1.44638
C         36.34277        22.77703         1.81071
C         37.70120        24.80159         1.06118
C         36.45200        25.60673         1.18192
C         37.70526        27.58394         0.39509
C         36.50343        26.97154         0.62117
C         37.76986        29.06875         0.09463
C         36.49573        29.63521        -0.50150
C         37.80876        31.16072        -1.84163
C         36.51501        30.75719        -1.30124
C         37.77020        33.29587        -2.35285
C         36.59249        33.81619        -1.89923
C         37.86477        35.89915        -1.35444
C         36.60763        35.22828        -1.51757
C         37.86785        37.27621        -0.97794
C         36.63576        37.97388        -0.79658
C         37.88831        40.05017        -0.29467
C         36.64957        39.35568        -0.42400
C         37.90273        41.42895         0.08227
C         36.69108        42.08492         0.42922
C         37.95105        44.17320         0.88869
C         36.72218        43.46517         0.85004
C         37.96457        45.56324         1.23953
C         36.73488        46.23162         1.53003
C         37.98452        48.34900         1.85363
C         36.74884        47.63097         1.83996
C         38.00589        49.73053         2.19945
C         36.78014        50.36692         2.51393
C         40.18619        20.80307         2.68958
C         38.97972        21.43027         2.37749
C         40.17047        23.45875         1.70148
C         38.94996        22.73303         1.86455
C         40.18925        24.83838         1.27259
C         38.97796        25.54794         1.01746
C         40.22148        27.57633         0.40042
C         38.96914        26.88716         0.60904
C         40.26717        28.88371        -0.14704
C         38.99077        29.36152        -0.77142
C         40.30499        31.48031        -1.56349
C         39.01411        30.76879        -1.32657
C         40.32517        32.99903        -1.90693
C         39.13252        33.92855        -2.33864
C         40.31581        35.90210        -1.42348
C         39.09724        35.24010        -1.60376
C         40.32863        37.29593        -1.10257
C         39.10074        37.97884        -0.88111
C         40.33830        40.09291        -0.58296
C         39.11225        39.37564        -0.57539
C         40.34637        41.48572        -0.27486
C         39.13998        42.14295         0.09849
C         40.39696        44.21007         0.49688
C         39.17448        43.51473         0.50121
C         40.50018        45.54281         1.18243
C         39.19014        46.28580         1.25852
C         40.43773        48.41263         1.45736
C         39.20926        47.66868         1.53624
C         40.44779        49.80067         1.76421
C         39.25460        50.45597         2.19855
C         40.49967        52.53081         2.52178
C         39.32084        51.82018         2.59033
C         42.66024        20.80806         2.73401
C         41.40619        21.46553         2.47974
C         42.65576        23.47406         1.75778
C         41.40612        22.80571         1.99329
C         42.64112        24.80413         1.31576
C         41.42671        25.51663         1.11588
C         42.64964        27.62479         0.55566
C         41.44025        26.90123         0.68650
C         42.69611        28.96566         0.11977
C         41.47749        29.59158        -0.31734
C         42.73267        31.62471        -0.93779
C         41.51848        30.90966        -0.91450
C         42.75681        33.03705        -1.26832
C         41.56335        33.73900        -1.55478
C         42.77437        35.88107        -1.42629
C         41.56065        35.16876        -1.50713
C         42.77964        37.32652        -1.35949
C         41.55180        38.01525        -1.11284
C         42.76972        40.15947        -1.03975
C         41.56300        39.42715        -0.91018
C         42.76425        41.56864        -0.79316
C         41.56546        42.21617        -0.35719
C         42.78407        44.34693        -0.14847
C         41.57707        43.59848        -0.00170
C         42.79985        45.77649         0.14708
C         41.65693        46.38691         0.70366
C         42.80805        48.55823         0.72716
C         41.64050        47.77841         0.97874
C         42.83191        49.95631         1.07752
C         41.66173        50.55475         1.62866
C         42.88221        52.67145         1.87624
C         41.68241        51.92673         2.01439
C         43.85087        21.43368         2.50066
C         45.14727        23.42442         1.78222
C         43.91352        22.78153         2.00255
C         45.18044        24.78622         1.30076
C         43.90694        25.44779         0.83827
C         45.17283        27.69181         0.93010
C         43.88448        26.94994         0.99769
C         45.19031        29.04395         0.33755
C         43.96038        29.66771        -0.00745
C         45.20971        31.70048        -0.61430
C         43.96728        31.00054        -0.51464
C         45.23298        33.09360        -0.95110
C         43.99374        33.76117        -1.17976
C         45.24368        35.87656        -1.41889
C         44.00845        35.17138        -1.35174
C         45.20122        37.29668        -1.81000
C         43.96767        38.04679        -1.52325
C         45.18717        40.19836        -1.57612
C         44.00184        39.48200        -1.39937
C         45.15743        41.70788        -1.61836
C         43.95176        42.32615        -0.94185
C         45.20273        44.46874        -0.63483
C         43.93539        43.69596        -0.63827
C         45.09202        45.94688        -0.94119
C         43.93924        46.57364        -0.16975
C         45.08640        48.79615        -0.27110
C         43.93715        47.94445         0.11682
C         45.17831        50.16165         0.27043
C         44.01162        50.73795         0.90351
C         44.00976        52.09168         1.33482
C         47.60174        23.44527         1.88533
C         46.42238        22.86348         2.20859
C         47.62287        24.59906         0.91206
C         46.37686        25.43187         1.09289
C         47.72702        27.57724         0.68815
C         46.44195        26.90424         1.01442
C         47.69218        28.98033         0.20687
C         46.43364        29.67739         0.08155
C         47.68741        31.73602        -0.49155
C         46.44318        31.03549        -0.35901
C         47.70384        33.12733        -0.78657
C         46.46530        33.81096        -0.99937
C         47.72711        35.95578        -1.36962
C         46.47156        35.21794        -1.27606
C         47.73967        37.32019        -1.66256
C         46.49879        38.03425        -2.01904
C         47.72556        40.25124        -1.66215
C         46.45540        39.56617        -2.13091
C         47.69957        41.65022        -1.40722
C         46.47928        42.32767        -1.21695
C         47.70360        44.55270        -1.11537
C         46.48947        43.75585        -0.88299
C         47.62523        45.97657        -0.99836
C         46.42382        46.64873        -0.78907
C         47.64713        48.87624        -0.58537
C         46.39502        48.11886        -0.73618
C         47.57504        50.22821        -0.27634
C         46.37642        50.85387         0.12918
C         50.12550        24.65072         0.73835
C         48.92284        25.37128         0.79439
C         50.15598        27.41147         0.22566
C         48.94933        26.75590         0.50757
C         50.16989        28.84034        -0.27057
C         48.88827        29.61613        -0.07100
C         50.15760        31.73018        -0.31565
C         48.91974        31.03061        -0.32088
C         50.17216        33.13852        -0.54447
C         48.94962        33.84396        -0.83175
C         50.20331        35.97138        -1.05506
C         48.96697        35.24029        -1.11436
C         50.22680        37.37628        -1.24889
C         49.04983        38.01451        -1.96661
C         50.26100        40.30073        -1.42420
C         48.99331        39.54801        -1.85163
C         50.15259        41.73005        -1.06647
C         48.94470        42.40185        -1.21052
C         50.17094        44.55251        -1.15841
C         48.93756        43.85258        -1.18030
C         50.19071        46.01604        -1.33000
C         48.86175        46.76875        -1.21272
C         50.13258        48.80385        -0.65956
C         48.90487        48.18623        -0.79533
C         51.33296        25.29394         0.49675
C         52.62819        27.39992         0.15424
C         51.37139        26.68319         0.24708
C         52.60318        28.84551         0.46913
C         51.38004        29.62932         0.18852
C         52.60528        31.79499         0.27317
C         51.37433        31.00153         0.05284
C         52.63569        33.20319        -0.18379
C         51.40364        33.87679        -0.48784
C         52.63500        36.01727        -0.56301
C         51.41564        35.27545        -0.71710
C         52.60665        37.41918        -0.61614
C         51.40404        38.11930        -0.95373
C         52.53600        40.26849        -0.40978
C         51.42716        39.54887        -0.96633
C         52.52081        41.72947        -0.37205
C         51.35823        42.43636        -0.73561
C         52.61374        44.56070        -0.72723
C         51.38431        43.86734        -0.86427
C         52.73163        45.99378        -1.20955
C         51.43377        46.75930        -1.04775
C         51.37018        48.10279        -0.79804
C         55.06874        27.45028        -0.11221
C         53.85301        26.75629        -0.02479
C         55.13730        28.85104         0.03399
C         53.94478        29.57491         0.52074
C         55.17069        31.73748         0.02224
C         53.94020        31.06974         0.46415
C         55.19756        33.23362        -0.11635
C         53.83633        33.89496        -0.13944
C         55.00772        36.00859         0.22366
C         53.85703        35.32595        -0.22189
C         55.11695        37.45159         0.02500
C         53.83730        38.18696        -0.39403
C         54.73782        40.31454         0.79170
C         53.70892        39.60591        -0.05858
C         54.89257        41.76665         0.37969
C         53.72115        42.44505        -0.08041
C         54.98936        44.57000        -0.04354
C         53.76621        43.86183        -0.30001
C         55.01287        46.01440        -0.19507
C         53.95196        46.69573        -0.67069
C         56.27379        29.58191        -0.33894
C         56.27434        30.99681        -0.34664
C         56.08745        33.92915         0.89155
C         56.01189        35.27735         0.97334
C         56.17126        38.25211         0.69737
C         56.02744        39.55520         0.96791
C         56.06390        42.48262         0.59442
C         56.11439        43.87443         0.38370
O         33.68285        43.27420         2.67201
O         35.80413        25.63709         2.50883
O         40.56618        31.96955        -2.92377
O         45.77742        37.45706        -3.17707
O         29.52653        28.84168        -2.46552
O         28.77302        44.35366        -0.48989
O         49.89530        40.14328        -2.85717
O         53.24251        31.67589         1.59344
O         54.91757        37.87303        -1.36732
O         44.42625        27.54258         2.20736
O         45.43216        48.69934        -1.69779
O         53.32033        29.08368         1.73494
O         30.50598        41.47182        -1.48497
O         49.46827        46.50128        -2.51378
O         37.65492        23.76368         0.01749
O         45.98291        44.10499         0.54162
O         30.46637        36.97972        -2.89945
O         47.29127        27.46222         2.10120
O         35.09513        28.84858         1.40805
O         37.76977        32.03226        -2.93507
O         46.43767        39.87155        -3.57356
H         46.05113        39.07044        -4.00997
O         55.79544        33.49459        -1.43064
H         55.82109        34.46844        -1.55322
O         32.01175        29.20193        -2.93039
H         31.15044        29.22829        -3.41377
O         29.27942        41.65062         1.98227
H         28.46794        41.96290         2.43563
O         33.20021        26.86875        -1.88998
H         32.79129        27.48846        -2.54649
O         43.90961        25.26009        -0.62630
H         43.70956        24.31785        -0.81026
O         49.28372        37.71312        -3.37986
H         49.78214        38.48238        -3.74708
O         52.93689        45.89937        -2.66298
H         53.72114        45.33069        -2.81438
O         38.80644        28.50900        -1.95109
H         39.53761        28.69332        -2.57805
O         32.96252        33.35839         0.38216
H         32.21011        32.87167         0.78164
O         54.15428        40.36172         2.14702
H         53.36634        40.94508         2.10693
O         50.31953        28.71690        -1.73435
H         50.22749        29.61580        -2.11688
O         39.45331        34.26519        -3.72014
H         39.62114        33.41158        -4.17952
O         45.01452        42.09023        -3.03680
H         45.58462        41.46056        -3.55285
O         40.82790        45.21057         2.59452
H         40.88346        46.05919         3.08417
O         37.91698        29.75130         1.36670
H         37.09524        29.57367         1.88119
O         30.52243        44.88878         3.50306
H         31.35076        44.37688         3.63169
O         47.48053        23.98870        -0.42836
H         46.65954        23.45140        -0.41761
O         34.20735        35.35933        -3.37052
H         34.12848        36.30821        -3.60605
O         44.74015        46.05269        -2.35092
H         44.79321        47.01154        -2.58100
H         26.92635        27.08920        -0.11717
H         25.76022        29.26688        -0.27556
H         25.77182        31.65297        -0.85605
H         25.73893        33.43350        -1.52655
H         25.75062        35.85922        -1.60652
H         25.76746        37.75367        -1.40415
H         25.77936        40.07861        -0.71387
H         25.79424        41.83550         0.14004
H         25.84387        44.08911         1.08140
H         27.17886        46.32632         1.51648
H         28.98899        25.81144        -0.00417
H         29.20667        47.15453         2.52612
H         32.62013        23.83403         1.15699
H         30.57383        24.92076         0.45755
H         33.01584        49.35882         2.34672
H         30.89657        48.15666         2.27937
H         34.24091        22.93132         1.87504
H         34.65944        50.22700         2.70538
H         36.30226        21.71768         2.10462
H         36.76242        51.42923         2.78930
H         40.18588        19.77358         3.07464
H         38.04295        20.87444         2.51850
H         40.52919        53.58475         2.83317
H         38.42159        52.32917         2.96113
H         42.64322        19.77464         3.10959
H         42.89853        53.72507         2.18966
H         44.78559        20.88836         2.68854
H         44.91444        52.70331         1.22342
H         48.54648        23.01328         2.24647
H         46.42246        21.97533         2.85664
H         48.49303        50.83085        -0.24965
H         46.44448        51.90363         0.44359
H         50.11878        23.56427         0.90282
H         50.18593        49.86853        -0.39451
H         52.26384        24.71145         0.51541
H         52.29005        48.68324        -0.64304
H         55.98072        26.90172        -0.38850
H         53.86864        25.67123        -0.19873
H         55.92808        46.54726         0.10510
H         54.02928        47.78420        -0.80352
H         57.16666        29.04195        -0.68478
H         57.17153        31.52590        -0.69642
H         56.84976        33.36055         1.44184
H         56.70970        35.83686         1.61265
H         57.12757        37.75710         0.92515
H         56.85294        40.08092         1.46990
H         56.97019        41.97577         0.95156
H         57.04889        44.41884         0.58081
