         314
 CSIRO Nanostructure Databank - Neutral Graphene Oxide Data Set
C         30.84396        57.34951        -1.71033
C         30.79208        58.72628        -1.56101
C         29.77962        59.51031        -2.16577
C         30.87735        61.57935        -1.49712
C         29.80104        60.90729        -2.08126
C         32.93374        52.89441        -1.14397
C         32.48597        54.12199        -0.72239
C         31.72014        55.14497        -1.37114
C         32.97886        57.19507        -0.44217
C         31.83209        56.51424        -1.08709
C         33.03467        58.60842        -0.43721
C         31.75856        59.39594        -0.61269
C         33.13238        61.49432        -0.54150
C         31.95858        60.86407        -0.91840
C         35.08950        48.48766        -0.22017
C         35.01991        49.93254         0.04222
C         33.97539        50.78268        -0.52520
C         35.18235        52.83913         0.11904
C         33.99340        52.15932        -0.43832
C         35.28479        54.29189         0.21067
C         34.15460        55.10236         0.24307
C         35.42379        57.15727         0.09242
C         34.16504        56.49184        -0.04427
C         35.44941        58.58861         0.08634
C         34.23868        59.30193        -0.13702
C         35.47922        61.41074         0.16983
C         34.28703        60.75114        -0.13231
C         37.65081        44.21104        -0.00410
C         37.16798        45.45298        -0.50374
C         36.25031        46.33209         0.02779
C         37.54685        48.52080        -0.20758
C         36.28297        47.78742        -0.19768
C         37.59004        49.87358         0.23447
C         36.32500        50.63407         0.42913
C         37.58855        52.78656         0.74709
C         36.34082        52.10555         0.35565
C         37.71684        54.21765         0.50523
C         36.56028        54.96597         0.27524
C         37.87168        57.08051         0.49558
C         36.61133        56.40444         0.27605
C         37.87555        58.53554         0.57368
C         36.66757        59.26994         0.36309
C         37.89122        61.37196         0.73569
C         36.68462        60.70169         0.43726
C         40.37048        40.30630         0.60923
C         40.27333        41.56939         0.04892
C         39.12453        42.35982         0.26032
C         40.03090        44.26612        -1.16443
C         38.90425        43.63103        -0.30092
C         40.10938        45.77800        -0.94586
C         38.98037        46.53080        -1.11770
C         40.12921        48.55764        -0.26932
C         38.82473        47.93416        -0.69759
C         40.06205        49.77747         0.55778
C         38.80486        50.53520         0.52056
C         40.19134        52.62174         0.95568
C         38.86611        51.94043         0.92904
C         40.27879        54.09914         0.79773
C         39.02327        54.88607         0.54050
C         40.35061        57.00484         0.85891
C         39.04582        56.35112         0.65838
C         40.33484        58.49954         0.99703
C         39.05431        59.22535         0.87838
C         40.33800        61.31968         1.15264
C         39.08155        60.65653         0.96873
C         42.92038        36.37786         2.20126
C         42.75226        37.41547         1.17163
C         41.57568        38.27958         1.16110
C         42.71544        40.02586        -0.20609
C         41.53172        39.47576         0.46641
C         42.68050        41.39845        -0.65036
C         41.34369        42.06096        -0.90423
C         42.57028        44.25376        -0.87875
C         41.38054        43.57725        -0.92539
C         42.61015        45.74892        -1.10798
C         41.35819        46.44280        -0.64343
C         42.61843        48.50392        -0.08988
C         41.37819        47.76786        -0.26742
C         42.62011        49.81577         0.33820
C         41.38851        50.44871         0.86184
C         42.62733        52.58556         1.35646
C         41.35311        51.91719         1.02178
C         42.63290        54.04607         1.56304
C         41.51203        54.79154         1.28106
C         42.67446        56.91826         1.75238
C         41.53295        56.24185         1.36735
C         42.67748        58.38759         1.98146
C         41.36932        59.17013         1.87133
C         42.77437        61.23426         1.38681
C         41.51691        60.62179         1.44768
C         45.64360        34.00780         3.25988
C         44.46577        34.75608         3.31538
C         45.31830        36.72960         2.08852
C         44.19081        35.95305         2.55736
C         45.33012        37.57717         1.01192
C         44.01019        37.99007         0.47866
C         45.17230        39.90321        -0.61390
C         43.92462        39.33523        -0.10987
C         45.13529        41.40354        -1.00626
C         43.85849        42.11825        -0.84736
C         45.07385        44.26809        -0.86393
C         43.85449        43.55849        -0.86425
C         45.09846        45.72777        -0.74771
C         43.87990        46.44320        -0.68214
C         45.09331        48.55386        -0.32935
C         43.87171        47.82246        -0.39297
C         45.12569        49.97149        -0.05467
C         43.81434        50.70224         0.07827
C         45.17770        52.63718         1.04518
C         43.91371        51.87478         1.03412
C         45.18569        53.91187         1.79438
C         43.89847        54.67333         1.99593
C         45.25067        56.90051         1.85837
C         43.94034        56.19692         2.06189
C         45.23989        58.30802         1.77745
C         44.00478        59.10967         1.97942
C         45.19365        61.19784         1.27635
C         44.00642        60.55144         1.58283
C         46.84717        34.29055         2.57450
C         48.00004        36.08532         1.15045
C         47.18326        35.60354         2.15979
C         47.87616        37.44483         0.62969
C         46.57493        38.14378         0.48659
C         47.66796        39.96988        -0.84688
C         46.48095        39.29469        -0.27606
C         47.65917        41.44417        -0.98289
C         46.39233        42.15993        -0.96445
C         47.60028        44.28169        -0.83539
C         46.31971        43.54575        -0.90090
C         47.61604        45.76495        -0.72748
C         46.31268        46.46555        -0.69498
C         47.52105        48.66850        -0.80023
C         46.30101        47.86337        -0.56508
C         47.57291        50.07312        -0.34170
C         46.31231        50.70173         0.01190
C         47.58361        52.81346         0.55654
C         46.32177        52.08440         0.50276
C         47.65975        54.03622         1.16988
C         46.48996        54.68010         1.81576
C         47.74913        56.83327         1.68942
C         46.47603        56.16857         1.82280
C         47.73796        58.29490         1.39977
C         46.49409        59.04095         1.73973
C         47.71170        61.19823         0.96945
C         46.49290        60.58451         1.50062
C         49.02241        38.02670         0.12763
C         50.22505        40.14738        -0.58235
C         49.03560        39.30096        -0.59621
C         50.16210        41.49059        -0.93046
C         48.86583        42.12016        -1.10305
C         50.08954        44.36917        -1.40473
C         48.82488        43.58149        -1.32523
C         50.03842        45.84815        -1.25485
C         48.86010        46.49784        -1.08279
C         50.07220        48.71898        -1.00557
C         48.80535        47.97744        -1.14941
C         50.03287        50.11052        -0.70588
C         48.77756        50.76248        -0.36762
C         50.06948        52.89913         0.07000
C         48.74400        52.25864        -0.23451
C         50.11419        54.11503         0.68763
C         48.98519        54.65173         1.53436
C         50.26327        56.91115         1.76905
C         48.96526        56.17063         1.60583
C         50.30436        58.43526         1.56061
C         48.99333        59.06730         1.17276
C         50.11839        61.19484         0.53087
C         48.92851        60.54863         0.96895
C         51.36091        42.29442        -0.94525
C         52.54765        44.46016        -1.04329
C         51.37339        43.67253        -1.15177
C         52.55505        45.86412        -1.19765
C         51.29396        46.58861        -1.64693
C         52.49696        48.75347        -1.21956
C         51.27960        48.04059        -1.22224
C         52.45949        50.16121        -1.07907
C         51.25515        50.83819        -0.76234
C         52.47928        52.96125        -0.48931
C         51.29300        52.25933        -0.42851
C         52.51555        54.37311        -0.04758
C         51.41847        54.77959         0.87317
C         52.85257        56.75671         1.53572
C         51.52474        56.08786         1.57585
C         52.77746        58.92745         1.63469
C         51.52182        59.25990         1.22563
C         52.54118        61.30225         0.23156
C         51.37136        60.58232         0.60382
C         53.73117        46.60278        -1.06806
C         54.97045        48.72070        -1.11838
C         53.76911        48.03168        -1.20283
C         55.04351        50.16008        -1.36334
C         53.68827        50.91802        -1.37518
C         55.02191        53.09350        -0.95802
C         53.69360        52.38502        -1.10579
C         55.03899        54.39494        -0.22252
C         53.77769        55.18103        -0.08123
C         55.13112        57.24902         0.56997
C         53.90864        56.42413         0.74833
C         55.13886        58.67133         0.65754
C         54.06797        59.59015         1.28425
C         54.99798        61.51192         0.06619
C         53.84005        60.83072         0.45769
C         56.26091        50.92794        -1.07473
C         57.50698        53.02607        -0.74247
C         56.28805        52.30637        -0.93074
C         57.56417        54.40786        -0.46336
C         56.33790        55.10297        -0.00073
C         57.48943        57.28930        -0.18822
C         56.31291        56.58022         0.13747
C         57.45276        58.70249        -0.18471
C         56.28697        59.38747         0.22821
C         57.43718        61.56762        -0.12828
C         56.25608        60.85243         0.09940
C         58.74639        55.14717        -0.53579
C         59.94518        57.26787        -0.54643
C         58.74798        56.57436        -0.44007
C         59.97765        58.71491        -0.75140
C         58.63032        59.46928        -0.62204
C         59.89748        61.58782        -0.43563
C         58.67729        60.91795        -0.36146
C         61.18715        59.50823        -0.55136
C         61.12865        60.87841        -0.49598
O         39.58713        48.83056        -1.60868
O         47.95314        48.51703        -2.22190
O         46.02200        53.94229         2.99145
O         40.67704        49.66635         1.88122
O         52.97221        57.80690         2.45479
O         51.72399        54.83041         2.33735
O         59.16317        59.10614        -1.92247
O         37.84954        45.91730        -1.65823
O         40.78343        57.91019        -0.25313
O         32.93410        54.51564         0.55905
O         47.81630        44.91881         0.48265
O         48.27643        58.46432         0.02571
O         50.27807        57.84930         2.89593
O         45.10458        40.34623        -2.00609
O         46.48031        36.61467         2.85329
O         54.28716        53.16399        -2.20621
O         46.66005        59.98623         2.83545
O         38.05778        52.34197         2.08600
O         43.84753        55.37352         3.26815
O         54.33597        50.55291        -2.60423
O         48.34898        39.25068        -1.90699
O         55.68337        54.33896         1.08788
O         49.35978        43.97271        -2.63911
O         43.34313        51.76353         2.36100
O         48.50804        52.76943        -1.68401
O         43.33663        58.76554         3.24461
O         52.82678        55.30272        -1.16922
O         43.20693        36.97462        -0.17570
O         39.92854        54.44252        -0.59818
O         35.39682        50.16944         1.45642
O         42.58765        45.91072        -2.57036
H         41.81926        45.40227        -2.91231
O         49.21530        54.16301         2.89059
H         50.14265        54.40117         3.13939
O         40.94728        41.61087        -2.23660
H         40.32612        42.28314        -2.60727
O         40.77493        59.17363         3.19480
H         41.51145        59.31053         3.83454
O         54.65511        60.03311         2.54762
H         54.56481        59.28770         3.18075
O         43.55109        51.34138        -1.22009
H         43.60544        50.65258        -1.91664
O         39.68799        44.03586        -2.56190
H         38.83001        44.49886        -2.71528
O         51.31926        46.59747        -3.10634
H         51.02636        45.71456        -3.41939
O         47.28636        52.19581        -2.17081
H         47.59312        51.43125        -2.71896
O         31.10198        59.36466         0.70502
H         30.25733        59.85560         0.61778
H         30.07402        56.85696        -2.32558
H         28.99110        59.01040        -2.74734
H         30.93628        62.67587        -1.56248
H         28.99789        61.48736        -2.55685
H         32.52010        52.43944        -2.05649
H         30.97517        54.84493        -2.12543
H         33.22456        62.58573        -0.65627
H         34.14425        47.93384        -0.32242
H         33.16784        50.29230        -1.08957
H         35.49673        62.51086         0.17853
H         37.03314        43.69376         0.74757
H         35.55842        45.97889         0.80777
H         37.90225        62.47125         0.77226
H         39.54311        39.93330         1.23361
H         38.31691        41.92655         0.87330
H         40.38558        62.40740         0.98920
H         42.02631        35.90790         2.63837
H         40.72518        38.00734         1.80519
H         42.82386        62.29650         1.10055
H         45.57729        32.99988         3.70224
H         43.60172        34.27657         3.80211
H         45.15842        62.19938         0.82159
H         47.51803        33.45345         2.33199
H         48.74176        35.42590         0.67557
H         47.64778        62.22943         0.59045
H         49.99071        37.53505         0.30918
H         51.17987        39.71141        -0.25160
H         50.05699        62.24053         0.19488
H         52.31534        41.78283        -0.74689
H         53.49640        43.95470        -0.80266
H         52.41228        62.27415        -0.26837
H         54.67589        46.07543        -0.86175
H         55.89941        48.17307        -0.89886
H         54.93453        62.53206        -0.34120
H         57.19529        50.36329        -0.93288
H         58.45270        52.48934        -0.91291
H         57.40150        62.66743        -0.14373
H         59.68810        54.63860        -0.79069
H         60.89335        56.70908        -0.56410
H         59.91869        62.68021        -0.31373
H         62.14478        58.98514        -0.41460
H         62.06210        61.45182        -0.40216
