         244
 CSIRO Nanostructure Databank - Neutral Graphene Oxide Data Set
C          1.32603         2.00736         0.41873
C          1.31409         3.37872        -0.02830
C          2.38353         1.18945         0.73978
C          2.39232         4.21438        -0.26706
C          1.10714         6.37670        -0.57788
C          1.09365         7.76249        -0.63150
C          2.30918         5.67135        -0.33966
C          2.29909         8.51050        -0.59057
C          1.15510        10.74635        -0.80402
C          1.14569        12.12778        -0.73895
C          2.32066         9.96090        -0.60456
C          2.29530        12.87585        -0.25696
C          1.13577        15.07947         0.12491
C          1.12034        16.41330         0.38173
C          2.34436        14.37284        -0.25260
C          2.30925        17.24211         0.15127
C          2.43996        18.56310         0.79156
C          3.74894         1.53563         0.41511
C          3.73912         3.65612        -0.29097
C          4.93281         1.29773         1.04967
C          4.82817         4.29080         0.20855
C          3.51324         6.41061        -0.20601
C          3.51714         7.79325        -0.43137
C          4.72273         5.76917         0.45163
C          4.83330         8.46116        -0.73713
C          3.59731        10.64130        -0.53456
C          3.62671        12.10535        -0.27851
C          4.78504         9.96126        -0.63812
C          4.85910        12.85367        -0.51201
C          3.55263        15.02736        -0.30498
C          3.60640        16.49662        -0.18838
C          4.82691        14.34275        -0.74413
C          4.88287        17.14725         0.15864
C          3.64659        19.16265         0.92525
C          4.89715        18.48949         0.60851
C          6.13126         2.07463         0.68179
C          6.07944         3.60356         0.73004
C          7.34726         1.46241         0.63491
C          7.32619         4.31783         0.22790
C          6.04101         6.46010         0.14039
C          6.03287         7.81354        -0.06126
C          7.28578         5.70166         0.09820
C          7.30138         8.56776         0.24365
C          6.08786        10.67183        -0.91780
C          6.06558        12.18030        -0.69072
C          7.20374        10.04271        -0.12044
C          7.28906        12.89716        -0.61825
C          6.10393        15.03137        -0.32157
C          6.10449        16.42313         0.03349
C          7.31861        14.29846        -0.36045
C          7.32886        17.09415         0.26252
C          6.12730        19.12915         0.85709
C          7.35278        18.45576         0.65694
C          8.58645         2.16844         0.38146
C          8.57005         3.58744         0.10794
C          9.78291         1.46863         0.37008
C          9.78020         4.23325        -0.20519
C          8.46363         6.39650        -0.49599
C          8.50328         7.92787        -0.55265
C          9.75187         5.62517        -0.70428
C          9.91316         8.47411        -0.21016
C          8.22091        10.85441         0.19593
C          8.55960        12.09306        -0.58674
C         10.10722         9.79709         0.22559
C          9.84159        12.79065        -0.16379
C          8.58695        14.92703        -0.12918
C          8.62714        16.43812        -0.13199
C          9.80867        14.20420        -0.07748
C          9.79264        16.96111         0.70277
C          8.61454        19.14262         0.81361
C          9.83197        18.47823         0.72936
C         11.03054         2.13108         0.18478
C         11.02862         3.54505        -0.07967
C         12.24539         1.42248         0.23786
C         12.26199         4.23932        -0.16515
C         11.06822         6.34012        -1.06419
C         11.07923         7.81921        -0.68479
C         12.30668         5.65561        -0.49853
C         12.30284         8.51140        -0.71903
C         11.17661        10.62119        -0.17055
C         11.09505        12.07624        -0.17143
C         12.35385         9.92468        -0.54798
C         12.31995        12.78590        -0.33132
C         11.07053        14.94984        -0.04028
C         11.05891        16.30948         0.20123
C         12.32471        14.23966        -0.28011
C         12.23025        17.14195        -0.05793
C         11.07538        19.15964         0.78220
C         12.29514        18.53110         0.45019
C         13.47757         2.09909         0.16495
C         13.47721         3.52725         0.04148
C         14.73221         1.41128         0.16216
C         14.71554         4.22288         0.16306
C         13.48650         6.34666        -0.46650
C         13.57071         7.75333        -1.04383
C         14.69890         5.69768         0.07859
C         14.82014         8.53093        -0.68167
C         13.57810        10.65769        -0.61637
C         13.56129        12.07271        -0.49916
C         14.81308         9.90580        -0.65674
C         14.80856        12.79449        -0.45967
C         13.51734        14.94525        -0.33203
C         13.53777        16.40938        -0.34989
C         14.83145        14.28169        -0.62811
C         14.79702        17.12532        -0.11710
C         13.54022        19.17661         0.48514
C         14.77966        18.51059         0.22077
C         15.92947         2.10191         0.18744
C         15.91574         3.52737         0.30580
C         17.24408         1.40492        -0.08796
C         17.18316         4.25805         0.55613
C         16.00686         6.41720         0.02548
C         16.12646         7.76544        -0.65998
C         17.27255         5.67899         0.20699
C         17.21912         8.52358         0.11506
C         16.08389        10.67493        -0.63268
C         16.03246        12.13728        -0.40017
C         17.35527         9.92978        -0.38655
C         17.20346        12.79337         0.10175
C         16.02865        15.00168        -0.04107
C         16.01612        16.38095        -0.05106
C         17.22764        14.26270         0.51944
C         17.29055        17.14430        -0.27636
C         16.02065        19.19156         0.42228
C         17.26392        18.56436         0.23662
C         18.44076         1.94791         0.74057
C         18.47349         3.48340         0.74103
C         19.72931         1.34728         0.22750
C         19.71910         4.21651         0.42499
C         18.50091         6.36305         0.30239
C         18.54906         7.80218         0.17600
C         19.71939         5.62524         0.43369
C         19.74962         8.52930         0.27324
C         18.51303        10.65360         0.17272
C         18.23801        11.98018         0.56284
C         19.74874         9.99284         0.33640
C         20.06462        13.03591         0.68894
C         18.56692        15.01355         0.25957
C         18.54951        16.38135         0.03554
C         19.87092        14.37222         0.26234
C         19.76585        17.13550        -0.10077
C         18.48793        19.23908         0.28290
C         19.71773        18.56910        -0.01622
C         20.83970         2.07357        -0.06672
C         20.88493         3.50763         0.03779
C         22.04479         4.25827        -0.37446
C         21.04577         6.32572         0.58899
C         21.00208         7.82978         0.40382
C         22.11692         5.60564        -0.20036
C         22.17227         8.55491         0.52455
C         21.00798        10.71570         0.43349
C         21.10094        12.18913         0.28089
C         22.18004         9.97047         0.49553
C         22.18539        12.85336        -0.35462
C         21.03470        15.02999        -0.22927
C         21.00623        16.47562        -0.31824
C         22.17913        14.23491        -0.51229
C         22.16830        17.25272        -0.53385
C         20.91336        19.29959        -0.18125
C         22.11360        18.64393        -0.46398
O         12.73155        17.01067        -1.42868
O         16.99349        10.26151        -1.74703
O          8.78416         5.79433        -1.80930
O         15.21332         6.42909         1.28072
O         17.77486         4.00680         1.91426
O         19.08403        12.52084         1.54839
O          3.84633         2.33790        -0.74159
O          9.18841        10.39792         1.09726
O          2.82930        17.19930        -1.22359
O          2.91814        12.39165         0.98455
O          6.05802         3.85822         2.19250
H          6.91077         3.53776         2.55700
O         18.26077         1.48964         2.09840
H         17.90646         2.25723         2.60790
O         17.32364        17.28574        -1.74506
H         16.44761        17.62238        -2.03179
O         16.55678         7.52961        -2.01694
H         15.76933         7.62283        -2.60059
O         17.03502        14.29807         1.96925
H         17.75344        13.74479         2.35737
O          8.83665        11.61376        -1.94530
H          8.82859        12.39063        -2.54264
O         11.21422         6.25721        -2.51402
H         10.30399         6.18617        -2.88802
O          8.89131        16.83514        -1.51434
H          8.11568        16.57520        -2.05421
O          4.48973         6.01456         1.87338
H          5.08423         5.39892         2.36749
O          6.35054        10.48566        -2.34678
H          5.71326        11.04364        -2.84041
O         16.77732         8.69470         1.48981
H         16.48240         7.82620         1.84592
O         17.51850         1.60768        -1.48306
H         18.40791         1.24032        -1.67279
O         13.66249         7.57188        -2.50090
H         12.82593         7.12108        -2.78658
O          8.29462         8.32105        -1.92008
H          8.59924         7.57934        -2.49174
O         21.43531         6.15334         2.00592
H         21.35635         5.19732         2.21336
O          5.06006         8.14645        -2.16244
H          5.81824         8.71511        -2.45756
O          9.56028        16.52068         2.06872
H         10.23559        16.93631         2.64375
O          7.53908         8.38394         1.65165
H          8.19516         9.06400         1.93407
O          4.78048        14.47420        -2.23725
H          4.50622        15.39728        -2.43412
O         15.01862        14.48222        -2.09063
H         14.26041        14.05636        -2.54528
H          0.32722         1.62287         0.68281
H          0.31711         3.84717        -0.00543
H          2.18027         0.25478         1.28440
H          0.16329         5.82411        -0.68897
H          0.13092         8.27906        -0.74937
H          0.22226        10.24141        -1.09415
H          0.26837        12.68094        -1.10477
H          0.22729        14.48402         0.29639
H          0.22241        16.88665         0.80620
H          1.52762        19.05775         1.15751
H          5.00545         0.56753         1.87027
H          3.71203        20.16442         1.37595
H          7.40848         0.36955         0.75267
H          6.13177        20.17343         1.20307
H          9.77836         0.38373         0.55207
H          8.59971        20.23539         0.94710
H         12.22905         0.33077         0.37060
H         11.07800        20.23915         1.00106
H         14.73417         0.31234         0.10644
H         13.58069        20.22639         0.81299
H         17.14043         0.30238         0.11877
H         15.99490        20.24963         0.72584
H         19.76476         0.24912         0.15770
H         18.51036        20.31959         0.49392
H         21.74969         1.55664        -0.40885
H         22.87290         3.71470        -0.85442
H         23.01811         6.15575        -0.50892
H         23.12816         8.02814         0.65454
H         23.14842        10.48822         0.54935
H         23.05742        12.27763        -0.69612
H         23.07246        14.71744        -0.93279
H         23.13112        16.75991        -0.72693
H         20.89101        20.39618        -0.10381
H         23.03118        19.23057        -0.61205
