         276
 CSIRO Nanostructure Databank - Neutral Graphene Oxide Data Set
C        -11.13414         0.74493         0.98831
C        -10.32437         1.64665         0.15674
C         -8.75869         0.72167        -1.21809
C         -7.62609         1.47058        -1.02518
C         -6.32450         0.76256        -1.07990
C         -5.19546         1.50243        -0.39728
C         -3.85808         0.76951        -0.28039
C         -2.57641         1.52409        -0.50534
C         -1.27603         0.77521        -0.59205
C         -0.02822         1.47742        -1.14171
C          1.24822         0.75668        -0.58720
C          2.57078         1.44327        -0.56709
C          3.86955         0.63977        -0.60402
C          5.04504         1.50746        -1.09951
C          6.36146         0.71799        -1.19353
C          7.66199         1.45961        -0.99226
C          8.92121         0.69621        -0.68927
C         10.07294         1.49624        -0.16905
C         11.21197         0.72224         0.29468
C         -9.77696         2.81790         0.56226
C         -8.95812         3.66742        -0.40366
C         -7.65829         2.96385        -0.85711
C         -6.35940         3.71515        -0.80418
C         -5.06660         2.97167        -0.78516
C         -3.87419         3.63587        -0.76839
C         -2.59743         2.90613        -1.12599
C         -1.28788         3.66955        -0.90270
C         -0.10348         3.00795        -1.00003
C          1.09322         3.79760        -1.45585
C          2.62708         2.63126         0.10571
C          3.86735         3.43400         0.18230
C          5.13610         2.76315        -0.22243
C          6.39881         3.57490        -0.25745
C          7.67659         2.89389        -0.57096
C          8.95311         3.70351        -0.79781
C         10.10216         2.85903        -0.25796
C         -8.71406         5.04921         0.18435
C         -7.56125         5.76598         0.13040
C         -6.30078         5.21068        -0.49703
C         -5.04210         5.65762         0.24082
C         -3.75978         4.97055        -0.13024
C         -2.44713         5.67974         0.00361
C         -1.36720         5.19492        -1.00456
C         -0.02576         5.95921        -0.85635
C          1.29016         5.18025        -0.85930
C          2.48053         5.69241        -0.05766
C          3.79053         4.94881         0.39995
C          4.94657         5.70737        -0.27871
C          6.26856         5.04377        -0.48907
C          7.55984         5.88156        -0.46179
C          8.77136         5.04418        -0.11725
C         -7.49278         7.16682         0.51794
C         -6.30492         7.85379         0.60353
C         -5.01236         7.11155         0.55668
C         -3.72541         7.87252         0.32745
C         -2.42586         7.09182         0.64658
C         -1.41366         8.01635        -0.04014
C         -0.05939         7.37775        -0.35257
C          1.15008         7.92515         0.31721
C          2.36218         7.06097         0.63031
C          3.63955         7.87925         0.30687
C          4.97270         7.25034        -0.17979
C          6.18764         7.71896         0.61534
C          7.37357         7.07194         0.47053
C         -6.22878         9.24527         0.97218
C         -5.03306         9.88471         1.16204
C         -3.75654         9.26823         0.90889
C         -2.57054         9.94810         1.05263
C         -1.31776         9.33049         0.70858
C         -0.10997         9.89391         1.03248
C          1.12707         9.15626         0.92182
C          2.35878         9.72998         1.61583
C          3.64945         9.22264         0.96114
C          4.96146         9.71708         1.44624
C          6.09206         8.97977         1.34693
C        -11.15716        -0.61572         1.02527
C        -10.28319        -1.56640         0.31629
C         -8.74318        -0.71625        -1.16070
C         -7.61074        -1.45542        -0.95374
C         -6.31466        -0.75988        -1.03967
C         -5.18008        -1.50780        -0.37116
C         -3.85383        -0.75337        -0.28768
C         -2.58096        -1.49482        -0.54212
C         -1.28764        -0.72177        -0.60820
C         -0.05239        -1.44508        -1.14464
C          1.22988        -0.72392        -0.70004
C          2.49230        -1.45735        -1.03599
C          3.79172        -0.74562        -1.22308
C          5.08259        -1.55414        -1.17190
C          6.39490        -0.79666        -1.16095
C          7.63217        -1.45427        -0.63125
C          8.79675        -0.75690        -0.39929
C          9.97850        -1.42919         0.16140
C         11.17979        -0.63331         0.38567
C         -9.73449        -2.62774         0.96530
C         -8.43324        -3.37639         0.67643
C         -7.74047        -2.94135        -0.69878
C         -6.38681        -3.68495        -0.95290
C         -5.07873        -2.96624        -0.85622
C         -3.88980        -3.65269        -0.87488
C         -2.59772        -2.88965        -1.15779
C         -1.34462        -3.61778        -0.68411
C         -0.08023        -2.89895        -0.74138
C          1.15061        -3.56961        -0.33677
C          2.47460        -2.83927        -0.47308
C          3.76367        -3.57189        -0.26888
C          5.05042        -3.00921        -0.79663
C          6.32552        -3.70564        -0.36887
C          7.59451        -2.91491        -0.30408
C          8.65221        -3.49607         0.62473
C          9.95436        -2.75235         0.51237
C         -8.51487        -4.87064         0.53927
C         -7.23861        -5.63303         0.45711
C         -6.36532        -5.18807        -0.80705
C         -5.10012        -6.01092        -1.09000
C         -3.82921        -5.11228        -1.31036
C         -2.48127        -5.96365        -1.04930
C         -1.34167        -5.10408        -0.50194
C         -0.05164        -5.81503        -0.21966
C          1.23356        -5.07417        -0.50701
C          2.47181        -5.74282         0.01266
C          3.73832        -5.05023         0.07916
C          5.02821        -5.82303        -0.15613
C          6.21867        -5.01639         0.43697
C          7.53634        -5.77219         0.43984
C          8.71118        -5.00455         0.51716
C         -7.33790        -7.12775         0.62718
C         -6.24318        -7.89712         0.41263
C         -5.16895        -7.48256        -0.56987
C         -3.78901        -8.10405        -0.30388
C         -2.61880        -7.16471        -0.04288
C         -1.24660        -8.00800        -0.06622
C         -0.05174        -7.09861         0.21189
C          1.21263        -7.67748         0.82158
C          2.46024        -7.23829         0.02793
C          3.74516        -7.84985         0.54871
C          4.94666        -7.22609         0.37563
C          6.24659        -7.99274         0.37947
C          7.48915        -7.16146         0.60729
C         -6.17362        -9.28245         0.87106
C         -5.03017       -10.00163         0.86175
C         -3.74091        -9.42525         0.40828
C         -2.49156        -9.84782         1.08240
C         -1.30198        -9.21254         0.86852
C         -0.03233        -9.79578         1.26035
C          1.17776        -9.16294         1.08696
C          2.44637        -9.80112         1.34467
C          3.66733        -9.19178         1.11185
C          4.93286        -9.81183         1.48385
C          6.13192        -9.24552         1.21074
O        -10.05898         1.23904        -1.17034
O          1.20624        -0.11288         0.61898
O          8.59686         1.14099        -2.05021
O         -7.09653         3.55417        -2.09154
O         -3.55943        -9.29493        -1.06529
O          7.30047        -3.78166        -1.44349
O          6.46931        -0.05104        -2.42523
O          0.07085         7.07851        -1.78578
O         -2.82214         4.71554         1.02015
O          1.75185        -2.88629         0.80527
O          5.05205        -2.61255        -2.18163
O         -1.02222        -8.51713        -1.34090
O          3.41472         9.09089        -0.47804
O         -3.11718        -1.39681         0.80655
O         -6.01028        -0.02722        -2.26483
O         -1.67509        -4.26886         0.66463
O         -5.03786         6.08293         1.62568
O        -10.01640        -1.28428        -1.03805
O         -6.73093        -4.61040        -2.07658
O          4.70663         2.72806         1.17741
O          1.77015         3.40275        -2.38974
O         -2.09149         8.28910        -1.32818
O         -5.72996        -8.01361        -1.80327
O          3.85264        -3.99583         1.10288
O          5.34115         5.26047        -1.60159
O         -3.13961         1.40747         0.82936
O         -3.99197        -4.93212        -2.72354
O         -3.54972         8.02625        -1.13317
O          7.27435         3.13611         0.83022
O          2.39604         5.88682        -1.49014
O          2.97535        -1.10743        -2.36817
O         -1.07837         0.01758         0.61929
O         -0.01101         1.24996        -2.56064
H          0.74277         1.75869        -2.94298
O          6.38767        -8.44206        -1.04360
H          7.17907        -9.02122        -1.08956
O         -5.69311         1.62068         0.97253
H         -4.91110         1.82863         1.53809
O         -6.13798         5.88976        -1.77383
H         -6.66442         5.38637        -2.43778
O         -9.75773         3.88025        -1.58938
H         -9.13796         4.05700        -2.33073
O          9.19084         3.98888        -2.19362
H          8.69502         4.81161        -2.42698
O         -0.06907        -1.40913        -2.59013
H         -0.87002        -1.89590        -2.90787
O         -2.85528        -6.66306         1.27364
H         -2.34767        -5.83236         1.42643
O         -8.70768        -3.42868        -1.64042
H         -8.45970        -3.12749        -2.53908
O          8.17183        -3.18577         2.00162
H          8.88009        -3.44884         2.62772
O          1.40139        -5.20179        -1.96737
H          1.44676        -6.17268        -2.16371
O         -5.60764        -1.57859         1.02212
H         -4.79706        -1.78201         1.55073
O          2.32867         9.43709         3.01401
H          2.19599         8.46162         3.09596
O          1.37343        -7.04314         2.11995
H          0.63053        -7.31904         2.69641
O         -2.64621         2.70192        -2.56015
H         -2.51610         3.58025        -2.98726
O          2.30035        -7.71616        -1.34258
H          3.17425        -7.65122        -1.78650
O          5.22729         7.73659        -1.51484
H          4.41845         7.59078        -2.05158
O          7.75500         6.41356        -1.81068
H          6.90605         6.87710        -2.03916
O         -7.62094        -3.03714         1.81626
H         -7.07852        -2.23141         1.62215
O         -2.15480         6.98083         2.02942
H         -2.65279         6.19573         2.35833
O          5.96562        -4.77727         1.83090
H          6.69392        -4.19952         2.17254
O         -6.30507        -5.25440         1.50799
H         -6.66721        -4.45350         1.96937
O         -2.53721        -2.73238        -2.59446
H         -2.95293        -3.55284        -2.99372
O          4.75048         1.99551        -2.41356
H          5.05245         1.32003        -3.06340
O          1.58853         3.10469         0.86732
H          1.00538         2.35442         1.11900
O          4.17813         0.28711         0.77849
H          3.33899         0.00116         1.20979
O          4.01964         5.12010         1.81763
H          4.47862         4.30025         2.13270
O         -2.10823        -6.43924        -2.32656
H         -1.66380        -7.33965        -2.23470
O         -1.88528         5.46967        -2.32268
H         -1.55177         6.36598        -2.58178
O          5.18588        -5.91481        -1.59038
H          5.85050        -6.61952        -1.77520
O         -5.14366        -6.44615        -2.55903
H         -5.94087        -6.02473        -2.97949
O          2.22597         6.89653         2.06763
H          2.88463         6.23619         2.39420
H         12.07538        -1.17161         0.73117
H         12.13344         1.26428         0.55521
H         11.01286         3.38915         0.06495
H          9.68446         5.60768         0.14151
H          8.27200         7.48085         0.96035
H          7.02335         9.36013         1.79472
H          4.97863        10.66849         1.99882
H          2.33635        10.84699         1.51661
H         -0.09010        10.86980         1.54040
H         -2.56345        10.96508         1.47314
H         -5.03004        10.93643         1.48548
H         -7.16959         9.79209         1.13220
H         -8.43851         7.69577         0.71308
H         -9.61492         5.54492         0.58119
H         -9.94255         3.18356         1.58544
H        -11.75330         1.25847         1.74314
H        -11.77825        -1.06592         1.81836
H        -10.05341        -2.75394         2.01383
H         -9.38143        -5.28279        -0.00072
H         -8.17141        -7.51994         1.22955
H         -7.09396        -9.72104         1.28671
H         -5.02356       -11.02556         1.26650
H         -2.52853       -10.75394         1.70914
H         -0.04178       -10.84237         1.60892
H          2.43391       -10.82890         1.74225
H          4.89275       -10.76457         2.03492
H          7.06058        -9.74987         1.52139
H          8.43668        -7.71286         0.72922
H          9.68563        -5.50764         0.62009
H         10.86226        -3.21989         0.92654
