         600
 CSIRO Nanostructure Databank - Neutral Graphene Oxide Data Set
C         22.98464        27.49562         1.64240
C         22.97911        28.82551         1.33773
C         22.95662        31.67499         0.56531
C         22.94402        33.01038         0.26902
C         22.92547        35.95044        -0.09046
C         22.92623        37.33369        -0.24735
C         22.95616        40.26780        -0.74748
C         22.97556        41.63087        -0.88490
C         23.02546        44.52883        -1.34411
C         22.98789        45.87788        -1.37935
C         25.46991        24.63039         1.83292
C         24.29269        25.29858         1.93963
C         25.52269        27.44388         1.40422
C         24.24547        26.76351         1.85316
C         25.38971        28.76900         0.74132
C         24.16879        29.56147         0.99065
C         25.41981        31.61129         0.33753
C         24.17448        30.91822         0.61967
C         25.41606        33.03801         0.16423
C         24.14892        33.76072         0.10199
C         25.39006        35.89990        -0.00713
C         24.10718        35.16846        -0.03008
C         25.38582        37.39370        -0.13801
C         24.10934        38.11074        -0.32641
C         25.40790        40.24484        -0.49934
C         24.15105        39.51147        -0.54047
C         25.41610        41.66853        -0.56479
C         24.19142        42.38664        -0.79256
C         25.43363        44.51982        -0.74480
C         24.20497        43.79300        -0.92713
C         25.43580        45.93628        -0.87377
C         24.13556        46.70278        -0.87714
C         25.45062        48.68135        -1.62556
C         24.26856        48.03065        -1.57588
C         28.01833        23.12936         1.64911
C         27.96690        24.53877         1.48055
C         26.73324        25.28027         1.53476
C         27.95574        27.31115         0.83889
C         26.74933        26.64634         1.20218
C         27.95260        28.65789         0.12988
C         26.63982        29.43696         0.22851
C         27.89212        31.60070         0.21793
C         26.65071        30.91262         0.24945
C         27.89284        33.02639         0.13675
C         26.64603        33.71189         0.03619
C         27.86636        35.92640        -0.02589
C         26.63105        35.14440        -0.43975
C         27.92841        37.35620        -0.45549
C         26.63633        38.09937        -0.55235
C         27.88285        40.24770        -0.31764
C         26.64757        39.56555        -0.44093
C         27.86739        41.65964        -0.25562
C         26.65254        42.37208        -0.42373
C         27.86718        44.54556        -0.35697
C         26.64947        43.81652        -0.48818
C         27.86361        45.95012        -0.60500
C         26.64791        46.65040        -0.87615
C         27.88090        48.79509        -1.01846
C         26.68509        48.07067        -1.15516
C         27.95152        50.22963        -1.22511
C         30.44729        23.13180         1.42140
C         29.21278        22.44447         1.58370
C         30.42546        24.53059         1.30756
C         29.19298        25.24165         1.28326
C         30.43084        27.36229         0.75601
C         29.17647        26.64392         0.97206
C         30.40717        28.78896         0.52663
C         29.18346        29.48174         0.41104
C         30.38268        31.61821         0.24760
C         29.15213        30.89006         0.28587
C         30.37412        33.05166         0.14507
C         29.14489        33.73013         0.12233
C         30.41632        35.94360        -0.00275
C         29.15559        35.20224         0.18621
C         30.40016        37.36588        -0.10771
C         29.17678        38.10581        -0.21997
C         30.38858        40.22538        -0.15259
C         29.14655        39.50759        -0.21326
C         30.39941        41.65429        -0.11682
C         29.10973        42.38490         0.20117
C         30.30127        44.57257        -0.02558
C         29.11407        43.86361        -0.12743
C         30.24514        46.01943        -0.06495
C         29.06773        46.69402        -0.47851
C         30.29600        48.84070        -0.41372
C         29.09357        48.11589        -0.62646
C         30.24832        50.30444        -0.35156
C         29.05218        50.95647        -0.90892
C         32.96756        20.29636         1.36143
C         31.78827        20.99617         1.48343
C         32.87387        23.10580         0.88875
C         31.71219        22.40944         1.27225
C         32.90840        24.52014         0.86120
C         31.72037        25.29114         1.38385
C         32.88248        27.38927         0.63435
C         31.64744        26.70010         0.85848
C         32.87694        28.80309         0.46504
C         31.63802        29.50967         0.45113
C         32.86035        31.64721         0.18878
C         31.62361        30.92614         0.29909
C         32.84952        33.07381         0.06568
C         31.62013        33.78256         0.07181
C         32.87338        35.92684        -0.16471
C         31.62677        35.21764        -0.03440
C         32.86965        37.36228        -0.21642
C         31.63671        38.07753        -0.17159
C         32.85355        40.21823        -0.32159
C         31.62058        39.50748        -0.21200
C         32.84074        41.64304        -0.40085
C         31.59621        42.34904        -0.24019
C         32.92087        44.48560        -0.19801
C         31.57475        43.84805        -0.44963
C         33.14193        45.75328         0.26592
C         31.31188        46.83843         0.34601
C         32.82017        48.82933         0.00377
C         31.49198        48.18769         0.00041
C         32.84869        50.23358        -0.15308
C         31.59088        51.02510        -0.13341
C         32.86309        53.08932        -0.53009
C         31.66907        52.45430        -0.45896
C         35.54836        18.84992         1.19853
C         35.38055        20.23618         0.79115
C         34.17059        20.91823         0.90497
C         35.35812        23.09688         0.46596
C         34.06305        22.33094         0.36705
C         35.34624        24.50546         0.45639
C         34.10170        25.22759         0.60595
C         35.33663        27.37492         0.40046
C         34.10959        26.66494         0.56991
C         35.33738        28.80078         0.30079
C         34.10606        29.51535         0.31915
C         35.32755        31.65109         0.02820
C         34.09314        30.94001         0.19132
C         35.30710        33.05496        -0.14592
C         34.09355        33.77729        -0.10367
C         35.34154        35.93018        -0.33026
C         34.09302        35.21241        -0.22345
C         35.33805        37.36659        -0.37533
C         34.09879        38.07783        -0.32788
C         35.31640        40.22032        -0.55554
C         34.09037        39.50765        -0.40292
C         35.30462        41.64342        -0.70489
C         34.06822        42.32219        -0.65390
C         35.35046        44.53926        -0.89730
C         34.05191        43.78412        -0.82464
C         35.37830        45.97319        -0.55763
C         34.20787        46.63936        -0.13526
C         35.27706        48.81496        -0.38924
C         34.08106        48.08718        -0.10250
C         35.31817        50.23219        -0.37241
C         34.08371        50.95377        -0.28996
C         35.33967        53.08789        -0.24249
C         34.10273        52.37687        -0.35949
C         35.37243        54.50492        -0.10527
C         37.72406        18.75679         0.00408
C         36.67449        18.15983         0.91270
C         37.78903        20.25435         0.19820
C         36.59610        20.94710         0.40404
C         37.80850        23.09577         0.26583
C         36.57959        22.38790         0.37921
C         37.80358        24.51864         0.27337
C         36.57492        25.22867         0.36452
C         37.80283        27.37087         0.25175
C         36.57151        26.65922         0.33671
C         37.80697        28.79618         0.19998
C         36.57479        29.51534         0.17936
C         37.81798        31.64310        -0.01911
C         36.57301        30.93350         0.04266
C         37.83790        33.06329        -0.16786
C         36.56712        33.74755        -0.59926
C         37.79749        35.93028        -0.36462
C         36.56402        35.23247        -0.36384
C         37.80159        37.35350        -0.45663
C         36.56497        38.07320        -0.48815
C         37.76984        40.22584        -0.70192
C         36.55812        39.51134        -0.58175
C         37.78947        41.65050        -0.75226
C         36.55654        42.37198        -0.79901
C         37.82342        44.51204        -0.76134
C         36.60520        43.78575        -0.83064
C         37.82685        45.95304        -0.80314
C         36.60108        46.65180        -0.71016
C         37.84837        48.86519        -0.81822
C         36.51290        48.11041        -0.78813
C         37.81819        50.27722        -0.43744
C         36.57423        50.95112        -0.37420
C         37.80562        53.07957        -0.03350
C         36.57309        52.37369        -0.20582
C         37.80013        54.49467         0.14457
C         36.55508        55.17891         0.09308
C         40.31133        15.97199         0.02009
C         39.10428        16.65886         0.06329
C         40.27183        18.79802        -0.00695
C         39.06614        18.06323         0.06486
C         40.26678        20.24311        -0.01409
C         39.03351        20.95440         0.08754
C         40.27254        23.09080         0.08168
C         39.03998        22.37726         0.14661
C         40.27156        24.51958         0.13311
C         39.04270        25.23265         0.20854
C         40.28100        27.36065         0.23817
C         39.03995        26.65416         0.22055
C         40.27742        28.79835         0.22126
C         39.05262        29.50257         0.16410
C         40.28137        31.64685         0.05273
C         39.04807        30.93490         0.07748
C         40.28136        33.07717         0.04435
C         39.03426        33.77822        -0.08728
C         40.24120        35.95140        -0.12839
C         39.04544        35.23421        -0.21883
C         40.26877        37.36438        -0.33553
C         39.04677        38.03442        -0.54902
C         40.33635        40.21817        -0.67528
C         39.02794        39.47391        -0.82611
C         40.24408        41.65153        -0.32272
C         39.01313        42.38414        -0.63815
C         40.31302        44.51060        -0.59553
C         39.04889        43.79097        -0.62848
C         40.30696        45.95450        -0.69188
C         39.08292        46.67096        -0.76384
C         40.30157        48.80483        -0.48187
C         39.09486        48.09517        -0.68321
C         40.29042        50.23584        -0.30847
C         39.05272        50.95227        -0.24377
C         40.27522        53.06265         0.12711
C         39.04738        52.36679        -0.03451
C         40.26635        54.47799         0.34598
C         39.03799        55.19633         0.36709
C         40.25385        57.26841         0.81229
C         39.06841        56.60159         0.60906
C         42.78210        15.99042        -0.14153
C         41.53015        16.67829        -0.05866
C         42.75075        18.82135        -0.20539
C         41.51738        18.10279        -0.07916
C         42.74054        20.24721        -0.20914
C         41.49676        20.95503        -0.08300
C         42.73633        23.10741        -0.09740
C         41.49997        22.38213        -0.03103
C         42.74820        24.51833         0.01116
C         41.50695        25.23427         0.14124
C         42.77912        27.35730         0.57243
C         41.49805        26.64225         0.24735
C         42.75543        28.82167         0.23172
C         41.52672        29.51392         0.18363
C         42.75421        31.65027         0.08941
C         41.51817        30.93894         0.08741
C         42.74312        33.10274         0.08117
C         41.50685        33.78399         0.10168
C         42.77097        35.97466         0.01786
C         41.48700        35.26493         0.36727
C         42.77638        37.37014        -0.10308
C         41.53102        38.09324        -0.25706
C         42.79887        40.23051        -0.24184
C         41.56651        39.48478        -0.33403
C         42.81740        41.63771        -0.31735
C         41.56078        42.40471        -0.21190
C         42.80701        44.49846        -0.90723
C         41.52374        43.82757        -0.51115
C         42.78649        45.96715        -0.58397
C         41.55117        46.66838        -0.59792
C         42.78027        48.80537        -0.44249
C         41.54370        48.09329        -0.48480
C         42.76979        50.24889        -0.29821
C         41.52053        50.94210        -0.17406
C         42.74767        53.05687         0.22267
C         41.51573        52.35296         0.05864
C         42.74407        54.46796         0.47345
C         41.50164        55.17142         0.53478
C         42.72833        57.25382         0.95984
C         41.49487        56.57401         0.77218
C         43.95768        16.68046        -0.27492
C         45.20384        18.83684        -0.51715
C         43.98346        18.11157        -0.32700
C         45.19223        20.25948        -0.54830
C         43.96307        20.96673        -0.35231
C         45.17680        23.11401        -0.46567
C         43.96151        22.39398        -0.29315
C         45.19562        24.54248        -0.37268
C         43.98881        25.24508        -0.08618
C         45.22010        27.37939        -0.02552
C         44.01345        26.65039         0.08672
C         45.23741        28.80389         0.11790
C         43.98172        29.52650         0.19080
C         45.23203        31.70667         0.44559
C         43.96637        30.94092         0.16356
C         45.23485        33.05609        -0.26308
C         43.96813        33.82612         0.02154
C         45.24791        35.95399        -0.00767
C         43.99303        35.24045         0.00051
C         45.25613        37.36730        -0.00297
C         44.02217        38.08997        -0.10449
C         45.27406        40.22553        -0.09552
C         44.03558        39.50610        -0.15227
C         45.28002        41.64942        -0.16805
C         44.04787        42.36767        -0.32100
C         45.26730        44.50623        -0.32131
C         44.05263        43.78020        -0.43724
C         45.26878        45.93982        -0.37768
C         44.01020        46.65805        -0.46997
C         45.27047        48.78721        -0.59838
C         43.99252        48.08086        -0.46533
C         45.25543        50.30894        -0.47498
C         43.97462        50.97425        -0.20126
C         45.22934        53.07020         0.26324
C         43.98446        52.36238         0.10683
C         45.21957        54.45924         0.54562
C         43.96806        55.17214         0.64303
C         43.92341        56.57347         0.89573
C         47.62240        18.85256        -0.90075
C         46.45822        18.16584        -0.69281
C         47.65645        20.28493        -0.97842
C         46.40380        20.99345        -0.79629
C         47.54859        23.17583        -1.18504
C         46.36872        22.40207        -0.78031
C         47.63580        24.60240        -0.83935
C         46.42923        25.27065        -0.48984
C         47.68130        27.38220        -0.33947
C         46.44184        26.68032        -0.30148
C         47.70203        28.80553        -0.12824
C         46.47437        29.51035         0.05903
C         47.69916        31.64352         0.14904
C         46.50019        30.93698         0.16516
C         47.69276        33.10514         0.21335
C         46.49697        33.81915         0.05758
C         47.71258        35.94151         0.29952
C         46.48832        35.23375         0.09676
C         47.71513        37.37598         0.28474
C         46.50056        38.08257         0.10232
C         47.73581        40.23120         0.10828
C         46.50200        39.51360         0.04250
C         47.73937        41.65577         0.04585
C         46.50795        42.37103        -0.09061
C         47.73412        44.51594        -0.02788
C         46.50204        43.79724        -0.13726
C         47.73336        45.94263        -0.06350
C         46.49887        46.65207        -0.24284
C         47.72949        48.80579        -0.19765
C         46.52375        48.07405        -0.32456
C         47.72176        50.25262        -0.13730
C         46.51081        50.98114        -0.12080
C         47.71863        53.07083         0.34050
C         46.48368        52.36996         0.16591
C         47.66414        54.47020         0.62351
C         46.46730        55.13111         0.72320
C         50.15500        20.33062        -1.18796
C         48.86811        20.97646        -1.17858
C         50.10423        23.19977        -1.40623
C         48.84725        22.42357        -1.43237
C         50.12391        24.56323        -1.16426
C         48.87898        25.27927        -0.84490
C         50.15859        27.35858        -0.26954
C         48.88871        26.66402        -0.52864
C         50.18275        28.82362        -0.16415
C         48.94017        29.51856        -0.10124
C         50.17683        31.60983         0.27747
C         48.94793        30.93398         0.08072
C         50.14234        33.02785         0.67720
C         48.90447        33.81226         0.45333
C         50.15941        35.95016         0.96237
C         48.91835        35.21038         0.50162
C         50.17842        37.40152         0.55612
C         48.96360        38.09494         0.37430
C         50.20053        40.23474         0.30339
C         48.96743        39.52038         0.24708
C         50.20507        41.66386         0.25063
C         48.97273        42.37258         0.12889
C         50.19532        44.51776         0.21000
C         48.96458        43.79985         0.09786
C         50.16960        45.93587         0.23880
C         48.96188        46.66419         0.07017
C         50.17806        48.85513         0.01957
C         48.96086        48.10769        -0.00567
C         50.19313        50.24960        -0.07652
C         48.95662        50.96796        -0.02441
C         50.22258        53.05723         0.34008
C         48.95090        52.37307         0.20040
C         51.29865        20.99087        -1.51617
C         52.61165        23.22065        -1.94458
C         51.30856        22.44017        -1.79180
C         52.56797        24.65468        -1.58685
C         51.40065        25.27824        -1.20340
C         52.64836        27.49472        -0.79631
C         51.46534        26.65202        -0.63858
C         52.66409        28.82529        -0.34766
C         51.41016        29.51381        -0.08083
C         52.66552        31.64560         0.22620
C         51.41303        30.92600         0.16692
C         52.69362        33.04052         0.42178
C         51.46031        33.77398         0.74400
C         52.64816        35.92446         0.52289
C         51.44723        35.23439         0.63588
C         52.65757        37.36898         0.53661
C         51.41697        38.09129         0.50682
C         52.66989        40.22699         0.45732
C         51.42967        39.51796         0.40735
C         52.68037        41.65540         0.42708
C         51.44324        42.38007         0.32617
C         52.68874        44.51491         0.37764
C         51.43809        43.80051         0.31334
C         52.70957        45.92423         0.36525
C         51.43231        46.65490         0.45535
C         52.74864        48.80175        -0.09303
C         51.44414        48.14846         0.32207
C         52.72062        50.28329         0.17029
C         51.48680        51.01208        -0.33045
C         51.40132        52.44082         0.12577
C         55.07747        23.23013        -1.70252
C         53.91656        22.54114        -1.84693
C         55.12226        24.66947        -1.66598
C         53.84893        25.39748        -1.69868
C         55.15436        27.50395        -1.00355
C         53.87251        26.89510        -1.34306
C         55.16530        28.86199        -0.50738
C         53.90177        29.55046        -0.27788
C         55.13563        31.65654         0.14298
C         53.90792        30.93866         0.03522
C         55.14966        33.05575         0.27971
C         53.90996        33.77587         0.36853
C         55.12969        35.91225         0.51331
C         53.90174        35.19989         0.45460
C         55.13002        37.34316         0.59075
C         53.89100        38.06597         0.55827
C         55.12717        40.20471         0.69519
C         53.89480        39.50025         0.55992
C         55.13836        41.63759         0.67318
C         53.92238        42.35801         0.50622
C         55.14176        44.52034         0.52455
C         53.92369        43.79702         0.46253
C         55.16209        45.93122         0.59335
C         53.93035        46.65124         0.46979
C         55.10609        48.79526         0.83715
C         53.94721        48.07622         0.45953
C         55.04229        50.20455         0.92565
C         53.85370        50.91220         0.63233
C         57.59150        24.73566        -1.87245
C         56.33223        25.38565        -1.62360
C         57.59948        27.43302        -1.05328
C         56.34943        26.78965        -1.25116
C         57.67226        28.76140        -0.35318
C         56.37362        29.51460        -0.31304
C         57.64054        31.68634        -0.14948
C         56.42864        30.89427         0.28585
C         57.64160        33.08333         0.06529
C         56.39411        33.78590         0.35436
C         57.61921        35.91893         0.71968
C         56.36435        35.17686         0.51686
C         57.61677        37.37989         0.71683
C         56.35892        38.07470         0.70721
C         57.58789        40.19416         1.27300
C         56.34348        39.48292         0.81372
C         57.60471        41.66616         0.94634
C         56.40155        42.32887         0.71909
C         57.70805        44.54591         0.79784
C         56.40757        43.77523         0.47575
C         57.58778        45.96413         1.14586
C         56.37219        46.65753         0.91654
C         57.46903        48.71156         1.67300
C         56.32174        48.06192         1.15309
C         58.77397        25.41646        -1.81022
C         60.01475        27.53590        -1.40676
C         58.80566        26.79082        -1.39574
C         60.00530        28.91878        -1.20430
C         58.84912        29.59700        -0.80134
C         59.93213        31.82035        -0.97965
C         58.80337        31.02950        -0.63568
C         59.95489        33.17709        -0.72176
C         58.84437        33.81706        -0.14038
C         60.08113        36.06205         0.01142
C         58.94745        35.19794         0.35393
C         60.05029        37.39256         0.27194
C         58.84761        38.08585         0.68335
C         60.06431        40.23223         1.00617
C         58.86921        39.49102         0.90296
C         60.05439        41.60290         1.21722
C         58.84979        42.36601         1.13180
C         59.95230        44.50469         1.83004
C         58.86954        43.78138         1.25660
C         59.88778        45.86696         2.02333
C         58.70503        46.61918         1.71475
C         58.62169        48.01051         1.97513
O         58.49620        35.33402         1.73652
O         39.82579        39.89737        -2.00491
O         25.68218        28.81194        -0.70742
O         28.31649        35.71540         1.32793
O         34.53205        44.27604        -2.12803
O         25.12981        27.47160         2.81212
O         51.82960        22.82305        -3.11915
O         30.67223        50.77510         0.98554
O         50.77838        33.28165         1.98711
O         47.98620        22.84388        -2.55204
O         25.54322        36.73916         1.17897
O         57.30759        44.22324        -0.58235
O         37.08953        48.60719        -2.04804
O         32.24724        46.27020         1.20421
O         53.78258        26.43429        -2.74182
O         50.96532        26.67585         0.75585
O         51.42982        47.56631         1.65170
O         40.78458        41.99035         0.98699
O         27.30557        37.60006        -1.76478
O         45.31736        49.65339        -1.79057
O         50.08120        35.94551         2.43584
H         50.21885        35.00447         2.70926
O         57.97765        28.42530         1.06580
H         57.76264        29.23902         1.59078
O         31.44891        43.98749        -1.92459
H         32.33428        43.84964        -2.33020
O         51.61419        51.06255        -1.79466
H         51.83514        50.14242        -2.08472
O         45.24577        32.77898        -1.69563
H         45.19406        33.63506        -2.16980
O         31.98282        25.45428         2.83596
H         31.99445        24.55557         3.22958
O         28.10994        28.31294        -1.28707
H         27.20263        28.13603        -1.63045
O         29.03054        42.34482         1.67687
H         28.17808        42.75397         1.93810
O         45.22027        31.99454         1.87725
H         45.24902        31.14034         2.35724
O         26.57142        35.07551        -1.88946
H         27.31640        34.52640        -2.21036
O         41.40048        35.37612         1.84653
H         42.20042        34.94326         2.21551
O         37.24253        18.53573        -1.37031
H         36.34454        18.92594        -1.42823
O         57.53485        40.13295         2.76048
H         57.55853        39.18362         3.00923
O         52.79545        48.61185        -1.56920
H         53.69826        48.86121        -1.86335
O         42.85571        44.41566        -2.38970
H         43.62193        44.95237        -2.68589
O         42.87143        27.31479         2.05835
H         42.05260        27.72757         2.40794
O         23.82844        47.01530         0.53370
H         24.57375        47.55334         0.87619
O         36.55990        33.60233        -2.07736
H         35.75039        34.04726        -2.40835
O         56.61244        30.69788         1.75555
H         55.76041        30.36262         2.11004
O         33.80628        22.18423        -1.08258
H         34.60489        21.77373        -1.47759
H         22.03589        26.96410         1.80665
H         22.00992        29.34225         1.29724
H         21.99874        31.16592         0.73426
H         21.97694        33.52771         0.21299
H         21.94773        35.44959        -0.05297
H         21.95057        37.83485        -0.32016
H         21.99149        39.74511        -0.80093
H         22.02301        42.15515        -1.03721
H         22.14304        43.96552        -1.67908
H         22.07854        46.39964        -1.71364
H         25.45719        23.53677         1.93729
H         23.35091        24.74688         2.07688
H         25.49152        49.68674        -2.06924
H         23.35426        48.51618        -1.94937
H         27.09308        22.55753         1.79923
H         27.06613        50.75593        -1.60839
H         29.19806        21.34993         1.66891
H         29.03274        52.04972        -1.01921
H         32.97810        19.23202         1.63475
H         30.89665        20.45438         1.82648
H         32.88028        54.16912        -0.72728
H         30.73575        53.02599        -0.54939
H         34.75195        18.36720         1.78301
H         34.43910        55.08211        -0.12479
H         36.77797        17.11843         1.25069
H         36.52098        56.26961         0.21181
H         40.32257        14.87262         0.02038
H         38.16424        16.09003         0.07876
H         40.25370        58.35154         1.00142
H         38.13127        57.17244         0.64261
H         42.78599        14.89119        -0.11047
H         42.71882        58.33674         1.14984
H         44.89568        16.11438        -0.34611
H         44.85473        57.13694         1.03721
H         48.54986        18.28238        -1.04331
H         46.49714        17.06895        -0.66939
H         48.59109        55.04026         0.76596
H         46.48296        56.20582         0.94536
H         50.21564        19.25398        -0.97699
H         50.22803        54.11936         0.62060
H         52.23949        20.42991        -1.59988
H         52.32835        53.02716         0.19214
H         56.01913        22.66782        -1.63821
H         53.94503        21.44769        -1.94784
H         55.91966        50.78155         1.24294
H         53.86548        52.00146         0.77872
H         57.59880        23.68249        -2.18342
H         57.44237        49.79075         1.87382
H         59.71941        24.91510        -2.06263
H         60.95052        27.03451        -1.69257
H         60.93832        29.46907        -1.38927
H         60.82719        31.35249        -1.40800
H         60.87109        33.74330        -0.93508
H         60.97784        35.62349        -0.44731
H         60.94422        37.99025         0.04810
H         61.03582        39.72304         0.93868
H         61.01401        42.12524         1.33072
H         60.85610        43.96453         2.14480
H         60.74319        46.39630         2.46710
H         59.48693        48.53013         2.41078
