         762
 CSIRO Nanostructure Databank - Neutral Graphene Oxide Data Set
C         23.06587        25.15995         1.90717
C         21.90828        25.92384         2.05402
C         23.02075        27.84127         1.05111
C         21.88318        27.25317         1.63436
C         23.00192        29.22149         0.53412
C         21.76370        29.88046         0.31934
C         22.89385        31.78715        -0.67834
C         21.71234        31.13957        -0.23899
C         22.84566        33.03741        -1.38944
C         21.65301        33.85700        -1.54138
C         22.79313        36.09149        -1.50616
C         21.62635        35.22728        -1.59794
C         22.81485        37.39673        -0.92188
C         21.59203        38.07475        -0.56931
C         22.77499        40.11329         0.11447
C         21.57833        39.35757        -0.09108
C         22.75273        41.43124         0.58216
C         21.54820        42.19771         0.69125
C         22.72971        44.32324         1.10913
C         21.54460        43.56039         0.89341
C         22.76547        45.72369         1.14401
C         21.61917        46.55991         0.85098
C         22.76187        48.53797        -0.24011
C         21.62553        47.78404         0.22159
C         25.39602        23.43014         1.11962
C         25.51273        24.92888         1.34715
C         24.20979        25.71584         1.31343
C         25.39631        27.72357         0.31669
C         24.19364        27.06500         0.90705
C         25.50813        29.22566         0.55872
C         24.19215        29.88035         0.18908
C         25.39230        31.78821        -0.84466
C         24.16001        31.15114        -0.44912
C         25.33226        33.00767        -1.53728
C         24.05908        33.48507        -1.91455
C         25.27172        36.11788        -1.57430
C         24.02857        35.61569        -1.97866
C         25.28615        37.37175        -0.93006
C         24.06025        38.04113        -0.69312
C         25.29852        39.98151         0.40139
C         24.07965        39.52855        -0.38847
C         25.30872        41.37445         0.93855
C         23.99633        42.09713         1.04408
C         25.33987        44.29254         1.47086
C         23.99146        43.56866         1.34201
C         25.26536        45.73371         1.00729
C         24.06387        46.34990         1.25474
C         25.30957        48.87785        -0.01888
C         23.99559        48.41427         0.34887
C         25.52084        50.08255        -0.65873
C         27.82824        23.45031         1.32729
C         26.52926        22.71552         1.06877
C         27.86330        24.69829         0.42347
C         26.58665        25.45669         0.37512
C         27.96456        27.58251         0.03637
C         26.61712        26.91698         0.04512
C         28.00912        29.07882        -0.04557
C         26.72045        29.82932        -0.12495
C         27.88127        31.70293        -1.19820
C         26.66370        31.08795        -0.66758
C         27.84165        33.09926        -1.72799
C         26.54082        33.81224        -1.92381
C         27.80242        36.12110        -1.77126
C         26.51590        35.36204        -1.93011
C         27.84378        37.50112        -1.20113
C         26.59200        37.99593        -0.58202
C         27.80288        40.26178        -0.20132
C         26.61751        39.33848         0.05742
C         27.87864        41.34289         0.89606
C         26.58061        42.15480         0.92623
C         27.82043        44.29459         1.16104
C         26.55501        43.51178         0.97531
C         27.81628        45.74669         0.74031
C         26.47789        46.48681         0.57823
C         27.79583        48.71951         0.41319
C         26.49463        47.96905         0.19718
C         27.91627        50.10594        -0.12501
C         26.80814        50.66138        -0.76278
C         30.26502        20.44309         1.44498
C         29.13022        21.18881         1.50294
C         30.30140        23.19860         0.45515
C         29.12508        22.64213         1.21511
C         30.23336        24.52709        -0.23912
C         29.14090        25.32935        -0.02297
C         30.24926        27.36453        -0.91483
C         29.15893        26.75964        -0.35387
C         30.10268        28.78182        -1.48196
C         29.31694        29.72063        -0.53060
C         30.26561        31.71405        -1.80713
C         29.07732        31.05565        -1.20451
C         30.38260        33.17810        -1.69805
C         29.09792        33.88119        -1.48468
C         30.31808        36.10012        -1.84677
C         29.06584        35.35998        -1.53655
C         30.32246        37.56590        -1.47787
C         29.04275        38.17035        -0.98915
C         30.31389        40.16419        -0.22910
C         29.10065        39.49742        -0.41383
C         30.29368        41.54715         0.29152
C         29.15448        42.16203         0.74553
C         30.47475        44.36841         1.28974
C         29.14934        43.58244         1.20786
C         30.40447        45.85122         1.02743
C         29.11155        46.50338         0.74108
C         30.36797        48.72429         0.69317
C         29.07045        48.00108         0.76736
C         30.29797        50.23541         0.83663
C         29.13692        50.83645         0.05340
C         30.38405        52.94065        -0.09749
C         29.21758        52.18840        -0.28481
C         32.88893        18.93514         1.52966
C         32.75149        20.31889         1.16829
C         31.53850        21.00053         1.05114
C         32.75376        22.99141        -0.08944
C         31.48695        22.29061         0.29049
C         32.75124        24.38527        -0.69396
C         31.43327        25.08695        -0.91883
C         32.76016        27.23765        -1.35346
C         31.40312        26.52927        -1.45426
C         32.74232        28.62702        -1.86793
C         31.45453        29.41153        -1.90792
C         32.79984        31.66174        -2.02207
C         31.51379        30.92171        -2.06471
C         32.83049        33.05991        -1.95189
C         31.57865        33.82530        -1.87655
C         32.87271        36.08194        -1.79232
C         31.59526        35.31760        -1.99230
C         32.83034        37.48195        -1.26226
C         31.61807        38.18898        -1.10805
C         32.82212        40.14902        -0.28666
C         31.57705        39.50454        -0.53796
C         32.86512        41.53998         0.22635
C         31.58838        42.26281         0.46847
C         32.81559        44.45695         0.45067
C         31.61829        43.73465         0.54649
C         32.83129        45.86659         0.71450
C         31.58809        46.57041         0.86474
C         32.81782        48.79991         0.96514
C         31.54791        48.04215         0.75781
C         32.82281        50.26850         0.73856
C         31.61808        50.93326         0.57081
C         32.82326        53.09542         0.34779
C         31.59212        52.34243         0.29376
C         32.83755        54.50813         0.29309
C         35.37706        18.96715         1.40646
C         34.10545        18.30924         1.62174
C         35.33508        20.39999         1.14893
C         34.02226        21.08867         1.10020
C         35.23681        23.21360         0.27358
C         33.99246        22.50075         0.56523
C         35.17744        24.58230        -0.17556
C         33.98597        25.19579        -0.63798
C         35.24635        27.30589        -1.03370
C         33.97296        26.58944        -1.00913
C         35.31128        28.65957        -1.65527
C         34.04022        29.36966        -2.04037
C         35.35943        31.62814        -1.87325
C         34.04415        30.87948        -2.16504
C         35.26691        33.06369        -1.55654
C         34.09299        33.76788        -1.74425
C         35.36600        35.98522        -1.23864
C         34.13879        35.27079        -1.70370
C         35.28521        37.38055        -0.76610
C         34.06795        38.09520        -0.83859
C         35.28268        40.17887        -0.08603
C         34.02887        39.46931        -0.43328
C         35.31506        41.64728        -0.10042
C         34.10333        42.33874         0.05287
C         35.30462        44.41171         0.39265
C         34.06980        43.75021         0.20458
C         35.40429        45.89188         0.34891
C         34.08946        46.62704         0.51959
C         35.45974        48.81737         0.95485
C         34.12241        48.06109         0.96668
C         35.32279        50.28570         0.54882
C         34.07935        50.96875         0.59294
C         35.27901        53.14720         0.41977
C         34.06147        52.39906         0.45048
C         35.27324        54.57226         0.36745
C         34.02285        55.22661         0.32021
C         37.85715        16.12450         1.49572
C         36.70725        16.84294         1.64571
C         37.87359        18.98822         1.17818
C         36.59892        18.27153         1.43459
C         37.82044        20.49970         1.02828
C         36.48430        21.15406         0.97665
C         37.63011        23.34149         0.61679
C         36.43926        22.56282         0.60451
C         37.44675        24.72277         0.57781
C         36.35399        25.38088        -0.02724
C         37.72519        27.41596        -0.81197
C         36.43439        26.72769        -0.55896
C         37.75998        28.74497        -1.21464
C         36.52810        29.47833        -1.41368
C         37.78878        31.53869        -0.93096
C         36.54282        30.84651        -1.45151
C         37.79018        33.01378        -1.20434
C         36.51699        33.70923        -1.09709
C         37.85921        35.88800        -1.03492
C         36.57366        35.19006        -0.85953
C         37.85896        37.31464        -0.70252
C         36.55876        38.00889        -0.37605
C         37.86787        40.24455        -0.33326
C         36.60260        39.48387        -0.12876
C         37.87959        41.65128        -0.09456
C         36.56941        42.28442         0.12160
C         38.23374        44.67146         0.26678
C         36.43424        43.60183         0.58462
C         37.97409        46.04454         0.00798
C         36.70106        46.67357         0.34643
C         37.79658        48.84793        -0.06053
C         36.61166        48.05453         0.31408
C         37.76096        50.34637         0.00728
C         36.50471        51.03082         0.37989
C         37.75983        53.17017         0.38573
C         36.51880        52.44574         0.38699
C         37.77458        54.57510         0.37165
C         36.53247        55.30100         0.34701
C         37.79793        57.39762         0.22113
C         36.57719        56.69911         0.30637
C         40.57973        14.69539         1.83149
C         40.51457        16.05975         1.27345
C         39.15271        16.75587         1.15396
C         40.30051        18.79694         1.85193
C         39.14341        18.22035         1.39131
C         40.21234        20.97293         1.66003
C         39.02087        21.38295         1.14047
C         40.28592        23.43533         0.43128
C         38.97174        22.66119         0.36496
C         40.35653        24.74409        -0.14514
C         39.26690        25.65887        -0.02382
C         40.15100        27.24764        -1.61918
C         39.00232        26.72125        -0.84379
C         40.19126        28.70908        -1.74551
C         39.02858        29.42106        -1.49785
C         40.25207        31.54775        -1.47937
C         39.06260        30.86001        -1.39243
C         40.34122        32.96275        -1.06621
C         39.01691        33.74879        -0.96464
C         40.30192        35.90233        -1.43495
C         39.06561        35.21861        -1.15200
C         40.27618        37.39698        -1.63793
C         39.02207        38.12988        -1.14807
C         40.25359        40.26201        -0.82793
C         39.03327        39.56001        -0.73935
C         40.28137        41.66709        -0.67693
C         39.11350        42.39221        -0.30462
C         40.30620        44.59102        -0.98160
C         39.18975        43.85643        -0.33838
C         40.35048        46.11113        -0.83029
C         39.12135        46.80445        -0.36461
C         40.31972        48.96327        -0.35278
C         39.09393        48.17563        -0.23833
C         40.27557        50.29912         0.32677
C         39.02564        51.08641         0.21762
C         40.23571        53.16633         0.93144
C         39.00866        52.43473         0.44367
C         40.24598        54.62446         0.55696
C         39.04505        55.29779         0.36221
C         40.29371        57.46439        -0.03474
C         39.01779        56.74051         0.21554
C         40.36693        58.92843        -0.01217
C         42.80827        15.11284         2.76999
C         41.64680        14.28288         2.56157
C         42.93182        16.33962         2.17577
C         41.83189        16.87368         1.28168
C         42.75067        19.19578         1.62443
C         41.63787        18.34046         1.64859
C         42.66911        20.61936         1.29868
C         41.51590        21.41392         1.21207
C         42.70073        23.29361         0.07942
C         41.48891        22.73436         0.59472
C         42.71436        24.52569        -0.63296
C         41.50982        25.23898        -0.76643
C         42.75977        27.23357        -1.60649
C         41.47319        26.50686        -1.51211
C         42.76788        28.66103        -1.80237
C         41.48026        29.36071        -2.04478
C         42.78347        31.57038        -1.68465
C         41.49358        30.89952        -1.93492
C         42.79158        33.01634        -1.58319
C         41.54043        33.72418        -1.40299
C         42.71549        35.54282        -2.28829
C         41.47534        35.13385        -1.54867
C         42.87261        37.90457        -2.21064
C         41.51585        38.25050        -1.65747
C         42.78314        40.17642        -0.99032
C         41.46171        39.52637        -1.16272
C         42.85703        41.64946        -0.92626
C         41.54520        42.36996        -1.07201
C         42.93186        44.54991        -0.95688
C         41.60018        43.85096        -1.16731
C         42.91690        46.05261        -0.78673
C         41.64498        46.77991        -0.68593
C         42.89670        48.90559         0.00649
C         41.66930        48.22559        -0.49394
C         42.83168        50.26216         0.30741
C         41.56842        50.99402         0.57521
C         42.72810        53.16735         0.80167
C         41.55303        52.47241         0.64948
C         42.80033        54.60446         0.84464
C         41.50256        55.39540         0.88579
C         42.89027        57.47516         0.23308
C         41.58825        56.71205         0.13880
C         42.80206        58.93541         0.27405
C         41.58001        59.59122         0.14641
C         45.33873        16.67497         2.75792
C         44.11313        17.19126         2.27630
C         45.27030        19.29993         1.82555
C         44.07079        18.55896         1.84302
C         45.26773        20.68112         1.28642
C         43.95229        21.30914         0.94252
C         44.91391        22.97866        -0.73626
C         43.86510        22.50106         0.05505
C         45.10961        24.33391        -1.06378
C         43.93601        25.11053        -1.09252
C         45.24286        27.16105        -1.45735
C         43.92840        26.50023        -1.46041
C         45.24945        28.66189        -1.49551
C         43.95869        29.38746        -1.66752
C         45.23334        31.53936        -1.33620
C         43.96157        30.82925        -1.63280
C         45.27179        33.02006        -1.47980
C         44.02040        33.69960        -1.59970
C         45.27406        35.98175        -1.49655
C         44.01170        35.19141        -1.60627
C         45.37460        37.51434        -1.74286
C         44.01237        38.12615        -1.44453
C         45.13563        39.99392        -0.03992
C         43.90564        39.28922        -0.52531
C         45.05425        41.47064         0.29281
C         43.98773        42.29859        -0.24946
C         45.24862        44.45895         0.25984
C         44.12362        43.75419        -0.41182
C         45.23611        45.84319         0.36991
C         44.17186        46.71715        -0.19554
C         45.24210        48.74679         0.78856
C         44.10392        48.14507         0.23964
C         45.31235        50.21078         0.86700
C         44.05660        51.00445         0.57163
C         45.20502        53.10153         1.50670
C         43.95284        52.39089         1.11398
C         45.23626        54.57260         1.37701
C         44.01451        55.26226         1.01078
C         45.32662        57.41204         1.20581
C         44.12351        56.71824         0.71075
C         46.49200        17.43959         2.81047
C         47.70388        19.58280         2.38203
C         46.50770        18.77922         2.33305
C         47.73349        20.90876         1.73356
C         46.59556        21.22599         0.86056
C         47.92477        22.99382        -0.35408
C         46.81653        22.07126        -0.18389
C         47.78203        24.23367        -1.07198
C         46.45572        24.85335        -1.49532
C         47.72998        27.10741        -2.04488
C         46.45269        26.33962        -1.81825
C         47.76204        28.63785        -2.03243
C         46.51026        29.35788        -1.77011
C         47.79794        31.52233        -1.70427
C         46.53737        30.77163        -1.45690
C         47.75499        33.00001        -1.51491
C         46.46018        33.71946        -1.40354
C         47.69530        35.82930        -0.81969
C         46.57327        35.20785        -1.68210
C         47.73132        37.34338        -0.79982
C         46.52120        38.08147        -0.87367
C         47.65338        40.00976         0.20876
C         46.46412        39.36437        -0.28813
C         47.60022        41.36905         0.68223
C         46.36601        42.16397         0.70839
C         47.60008        44.29256         0.96304
C         46.41918        43.66471         0.65553
C         47.60757        45.72422         1.32096
C         46.31388        46.52476         1.10776
C         47.62113        48.60392         1.51462
C         46.41981        47.99499         1.13413
C         47.66552        50.02757         1.91011
C         46.37080        50.88245         1.66713
C         47.62092        52.98312         2.20020
C         46.45471        52.32981         1.61937
C         47.64207        54.52871         2.07810
C         46.41929        55.25718         1.61448
C         46.42060        56.70460         1.58406
C         50.12827        19.76981         2.76028
C         48.91904        19.16104         2.99835
C         50.29009        20.81354         1.72882
C         49.05905        21.55438         1.33734
C         50.36742        23.21490        -0.08089
C         49.14047        22.59022         0.26334
C         50.23751        24.38957        -0.93060
C         48.97270        24.96572        -1.27729
C         50.30176        27.13193        -1.95407
C         49.01305        26.32135        -1.92408
C         50.29118        28.61681        -1.86131
C         49.06300        29.34109        -1.85092
C         50.26724        31.47769        -1.61089
C         49.07715        30.75624        -1.64819
C         50.29129        32.90677        -1.20550
C         49.00708        33.69550        -1.09658
C         50.23548        35.83817        -0.77856
C         49.02664        35.16299        -1.05717
C         50.19558        37.22386        -0.38664
C         48.93397        37.96188        -0.34995
C         50.13229        39.78489         0.85764
C         48.89809        39.30491         0.11209
C         50.13859        41.29127         1.16458
C         48.82803        42.03246         1.17818
C         50.11512        44.21440         0.96670
C         48.83155        43.54629         1.42979
C         50.09223        45.73304         1.05555
C         48.86290        46.47285         1.36964
C         50.09988        48.62528         1.56817
C         48.87397        47.87105         1.53628
C         50.11808        50.03527         1.74742
C         48.93030        50.75054         1.97902
C         50.22055        52.99962         2.17560
C         48.91588        52.20551         2.30510
C         50.11741        54.42872         1.82088
C         48.96059        55.12608         1.81166
C         52.78891        21.21873         2.25302
C         51.59691        21.53156         1.43023
C         52.79520        23.49515         0.64308
C         51.58615        22.80060         0.63721
C         53.16991        24.36933        -0.42217
C         51.40646        25.02898        -1.45017
C         52.79857        27.12129        -1.67995
C         51.57086        26.43116        -1.64399
C         52.79883        28.57018        -1.70792
C         51.52779        29.28012        -1.73665
C         52.81591        31.52021        -1.52551
C         51.53876        30.76150        -1.78463
C         52.78558        32.96088        -1.17314
C         51.53419        33.74101        -1.49565
C         52.68231        35.75565        -0.47899
C         51.48470        35.12394        -0.86299
C         52.64636        37.12485        -0.08470
C         51.43041        37.87559        -0.07198
C         52.65310        39.95405         0.59310
C         51.43943        39.24675         0.33465
C         52.62835        41.37027         0.90235
C         51.41915        42.06755         1.06615
C         52.62073        44.26776         0.99294
C         51.40022        43.49487         1.08314
C         52.61131        45.66784         1.03887
C         51.37906        46.39509         1.35934
C         52.62565        48.61759         1.17380
C         51.39036        47.89817         1.57341
C         52.59226        50.03472         1.12740
C         51.43710        50.72853         1.74598
C         52.59782        52.90302         1.14077
C         51.49249        52.24548         1.86039
C         53.80243        22.08312         2.44225
C         54.95526        24.35587         1.76119
C         53.79135        23.38589         1.74479
C         55.10198        25.46542         0.70674
C         54.06260        25.38972        -0.37486
C         55.37271        27.15289        -1.57916
C         54.10554        26.31485        -1.57013
C         55.31066        28.66285        -1.78470
C         54.00381        29.30358        -1.59846
C         55.26745        31.47665        -1.01384
C         53.97259        30.69238        -0.99287
C         55.20411        32.84301        -0.83339
C         53.95974        33.60489        -0.86477
C         55.15555        35.72212        -0.43235
C         53.96205        35.04323        -0.57920
C         55.20771        37.06917         0.15684
C         53.86344        37.79788         0.37394
C         55.18892        39.90851         0.69932
C         53.87904        39.24954         0.53497
C         55.21401        41.39809         0.92874
C         53.90193        42.11714         1.27496
C         55.06912        44.24916         0.62952
C         53.88747        43.57425         0.87409
C         55.13825        45.72077         0.77804
C         53.85555        46.45203         1.08442
C         54.96833        48.62449         0.43794
C         53.80074        47.92121         0.87031
C         54.89046        50.04290         0.27046
C         53.71117        50.75473         0.68371
C         53.63912        52.20139         0.63126
C         57.41621        24.39158         2.09931
C         56.18783        24.05571         2.53260
C         57.65589        24.97611         0.75631
C         56.45710        25.45668        -0.01021
C         57.82435        27.18561        -1.15504
C         56.60673        26.58377        -0.98785
C         57.91221        28.63180        -1.49960
C         56.59924        29.42158        -1.63022
C         57.74574        31.45065        -0.82614
C         56.55695        30.80908        -1.13383
C         57.68065        32.85501        -0.27614
C         56.48227        33.58877        -0.82511
C         57.71052        35.77743        -0.35843
C         56.45373        35.07431        -0.69289
C         57.68518        37.17311        -0.20996
C         56.44086        37.86250         0.00636
C         57.61923        40.01064         0.06382
C         56.42118        39.24541         0.19426
C         57.57878        41.44533         0.04352
C         56.35917        42.15522         0.35916
C         57.37761        44.32345        -0.31613
C         56.27399        43.54017         0.26024
C         57.42041        45.79367        -0.12968
C         56.29642        46.48902         0.26241
C         57.29535        48.67316        -0.36315
C         56.20515        47.93839         0.15359
C         57.16178        50.06049        -0.60466
C         56.00564        50.73197        -0.27500
C         60.11020        25.22437         1.08987
C         58.98562        25.53804         0.39874
C         60.39873        27.18620        -1.07049
C         59.07719        26.33579        -0.89749
C         60.25402        28.63945        -0.62184
C         59.07723        29.34920        -0.93122
C         60.18059        31.46304        -0.34175
C         59.00809        30.75233        -0.73473
C         60.17757        32.93119        -0.33702
C         58.96718        33.63110        -0.39290
C         60.17745        35.77985        -0.29955
C         58.94594        35.05825        -0.36065
C         60.15624        37.22238        -0.25200
C         58.91470        37.91064        -0.17462
C         60.08800        40.07347        -0.18967
C         58.87309        39.33562        -0.10779
C         60.03369        41.51262        -0.29301
C         58.76385        42.15846        -0.26327
C         59.94596        44.36010        -0.71192
C         58.70099        43.58906        -0.58814
C         59.87576        45.79063        -0.89745
C         58.68601        46.49875        -0.38013
C         59.67637        48.63581        -1.35780
C         58.61733        48.03046        -0.54242
C         61.42160        25.65022         0.63915
C         61.57446        26.51832        -0.37795
C         61.36033        29.34518        -0.12733
C         61.33232        30.73496        -0.01202
C         61.39261        33.66570        -0.31648
C         61.38981        35.04587        -0.29654
C         61.35151        37.98807        -0.26000
C         61.31570        39.36659        -0.24483
C         61.20302        42.28818        -0.46916
C         61.15920        43.67389        -0.64207
C         60.92140        46.52951        -1.42271
C         60.79205        47.92486        -1.69630
O         32.32772        35.84605        -3.13640
O         30.18173        23.39057         1.92774
O         27.27126        33.25726        -3.06309
O         59.06960        47.41225         0.70300
O         40.04262        45.43803        -2.13160
O         55.46094        27.73629        -2.90902
O         38.46811        25.50369         1.10799
O         37.39457        37.39558         0.68964
O         44.65025        21.66604         2.22149
O         41.44280        30.22070        -3.22424
O         34.63154        46.40501        -0.82263
O         53.78926        24.58958         2.62402
O         44.23643        52.54895         2.54261
O         34.90383        31.34064        -3.23774
O         35.10146        35.82357        -2.68465
O         40.66390        26.47765        -2.75031
O         45.36900        41.72842         1.71016
O         40.17409        19.96312         2.61818
O         45.40873        27.89646        -0.19010
O         51.47992        46.97478         2.70937
O         43.21946        40.92290        -2.18126
O         45.86547        22.08142        -1.20215
O         46.33076        25.34704        -2.87404
O         34.85181        28.70446        -3.05140
O         37.93837        19.61920        -0.18200
O         35.94209        39.72963         1.16288
O         28.40076        43.89540         2.43854
O         49.66972        33.10792         0.10214
O         41.01220        56.78191        -1.17595
O         31.94439        28.77498        -3.11335
O         43.96524        44.11501        -1.85876
O         39.26179        37.88671        -2.58083
O         45.91923        31.07167        -0.13083
O         37.59007        49.69900        -1.30966
O         48.30891        22.01716         2.51230
O         51.87178        51.39154         2.97889
O         30.62377        31.29206        -3.17219
O         57.00941        24.16836        -0.32296
O         47.81239        32.40745        -2.89110
O         28.58456        45.89791        -0.50674
O         39.83217        16.18831        -0.02312
O         33.89435        22.25393         2.01506
O         49.68069        52.61855         3.47049
O         33.43690        48.31018         2.22893
O         25.21482        40.19295         1.82521
O         30.17688        37.11258        -2.87089
O         26.43186        46.93954        -0.83850
O         23.83152        42.60030         2.43090
O         56.62318        34.40508        -2.01833
O         49.75998        26.47680        -3.16506
O         37.48971        44.13416         1.31729
O         49.39784        41.44613         2.42602
O         43.89039        56.97377        -0.73693
O         41.01875        48.96682        -1.61958
O         28.19455        28.39343         1.25972
O         36.40523        34.33303         0.30041
O         47.41009        53.86020         3.35207
O         39.75905        33.26785         0.24185
O         27.19818        35.94648        -3.08886
O         40.81450        50.32386         1.70205
O         29.08329        34.68113        -0.23430
O         47.66854        27.84202        -3.28916
O         50.03066        45.03463        -0.24615
O         32.09520        22.06583        -1.01653
O         55.53932        40.48663         2.03243
O         32.05306        24.28833        -1.98199
O         46.68873        50.31454         2.96292
O         51.13040        20.40140         0.60298
O         54.58691        37.11754         1.47786
O         57.48154        29.18172        -2.77208
O         32.35040        41.65434         1.61575
O         44.25773        39.20045         0.87228
O         25.72848        27.30759        -1.05076
O         44.45816        35.72356        -0.31664
O         52.42154        31.28670        -2.91364
O         42.65467        35.50106        -3.51815
O         26.83842        38.17169         0.88460
O         45.11346        50.86409        -0.43309
O         46.65353        45.96751         2.41059
O         41.49804        43.04119        -2.37718
O         60.66675        27.22131        -2.44527
O         26.93951        24.57759        -0.72720
O         28.20964        48.56904         1.82779
O         57.73647        43.90354        -1.67279
O         24.05026        47.71044         1.55872
O         43.94399        46.65803        -1.64119
O         52.46290        24.16038        -1.62036
O         25.96847        25.21580         2.65652
O         24.02585        34.52559        -2.85676
O         54.79055        46.09337         2.16314
O         30.17346        29.97650         0.60788
H         29.77915        29.49899         1.37629
O         40.14310        53.13538         2.40996
H         40.27389        52.19366         2.67553
O         53.83210        42.19642         2.73216
H         54.30297        41.40198         3.08121
O         47.34195        35.45019         0.54767
H         48.01622        35.81409         1.16030
O         57.40165        32.72703         1.16172
H         58.18422        32.30855         1.57943
O         50.03206        39.07317         2.14021
H         49.57268        39.68823         2.76389
O         30.92036        44.23978         2.68500
H         31.17013        43.30123         2.83699
O         35.90018        48.89570         2.34868
H         35.07957        48.93732         2.89838
O         38.89111        22.31945        -1.06270
H         38.48747        21.42475        -1.14151
O         27.52310        40.98058        -1.43041
H         27.54876        40.35158        -2.18216
O         51.54427        33.95150        -2.94125
H         51.82967        33.09739        -3.35339
O         27.76042        23.88270         2.70264
H         28.57165        24.39800         2.90704
O         42.98272        37.76575        -3.55865
H         42.12741        37.51752        -3.96795
O         25.69207        29.42859         1.98654
H         26.56246        29.03212         2.22676
O         29.30690        28.64282        -2.66405
H         29.86018        28.16262        -3.32436
O         53.64328        30.49405         0.42820
H         54.45434        30.20949         0.90007
O         55.02042        26.73768         1.40112
H         54.35142        26.62434         2.11355
O         24.29770        40.16736        -1.70200
H         23.56902        39.88645        -2.29604
O         59.10743        25.36567        -1.95155
H         59.66513        25.79811        -2.65867
O         30.02401        50.50744         2.24544
H         29.23868        49.95923         2.49325
O         31.08446        26.41860        -2.86900
H         31.61550        25.66634        -3.22186
O         48.84664        43.77268         2.86168
H         48.16667        43.20524         3.28189
O         37.73403        31.40413         0.53111
H         38.41509        32.02167         0.89594
O         45.78340        37.78445        -3.09026
H         45.01808        37.62772        -3.68670
O         42.35132        16.84895        -0.07108
H         41.57262        16.76845        -0.67030
O         54.18138        25.50379        -2.76598
H         54.50744        26.09035        -3.48575
O         25.59299        44.42053         2.90065
H         25.22159        43.60963         3.32388
O         27.98801        40.67315         2.16424
H         27.92378        41.34558         2.87482
O         41.35105        55.76893         2.29788
H         41.07152        54.95172         2.77695
O         46.92074        35.33997        -3.07757
H         47.39418        34.53430        -3.37826
H         23.08885        24.12557         2.27640
H         21.01745        25.48245         2.52200
H         20.96858        27.84144         1.78740
H         20.82315        29.38141         0.58754
H         20.73820        31.62243        -0.39380
H         20.67904        33.34746        -1.47429
H         20.63498        35.70573        -1.57246
H         20.64026        37.54068        -0.68952
H         20.61240        39.79904         0.19000
H         20.58445        41.70731         0.49791
H         20.58088        44.08793         0.86213
H         20.62961        46.10138         1.00276
H         22.62796        49.20009        -1.10736
H         20.64102        48.17782        -0.07906
H         24.41617        22.95693         0.95740
H         24.65245        50.67503        -0.98261
H         26.52519        21.63301         0.87414
H         26.88132        51.64604        -1.24154
H         30.22247        19.38740         1.75032
H         28.18940        20.72128         1.82529
H         30.35616        54.00813        -0.35239
H         28.34733        52.70430        -0.71270
H         31.98087        18.33537         1.68705
H         31.89081        55.06282         0.24828
H         34.10824        17.23652         1.85903
H         33.97116        56.32299         0.28759
H         37.81684        15.02946         1.58860
H         35.79042        16.28345         1.88190
H         37.76037        58.49229         0.13670
H         35.64894        57.28529         0.30356
H         39.72614        14.02331         1.66537
H         39.44246        59.51921        -0.06435
H         43.61037        14.71546         3.40829
H         41.64970        13.27473         2.99894
H         43.72920        59.52240         0.32182
H         41.57492        60.69080         0.16371
H         45.38640        15.62962         3.09351
H         45.35662        58.51037         1.19312
H         47.41333        16.98617         3.20026
H         47.31917        57.24052         1.91980
H         51.03054        19.35659         3.23201
H         48.90360        18.29239         3.67289
H         51.03570        54.95664         1.52782
H         48.98801        56.17126         1.46944
H         52.82113        20.22866         2.72936
H         52.58382        53.99397         1.01176
H         54.65094        21.82147         3.08987
H         54.44718        52.75977         0.14076
H         58.28244        24.19039         2.74605
H         56.05912        23.59954         3.52498
H         58.00894        50.62835        -1.01092
H         55.96461        51.81621        -0.43643
H         60.06517        24.57071         1.97322
H         59.56176        49.66641        -1.72060
H         62.30048        25.20954         1.13292
H         62.57797        26.76569        -0.75316
H         62.28418        28.80529         0.12315
H         62.23516        31.25628         0.33434
H         62.35390        33.13519        -0.31678
H         62.35284        35.57226        -0.26818
H         62.32772        37.48807        -0.30163
H         62.26579        39.91513        -0.27949
H         62.18726        41.80336        -0.45736
H         62.10415        44.22718        -0.73113
H         61.83261        46.01871        -1.76350
H         61.59314        48.41624        -2.26634
