         210
 CSIRO Nanostructure Databank - Neutral Graphene Oxide Data Set
C         30.79509        31.93158        -2.14739
C         30.87366        33.17944        -2.07461
C         30.91033        36.29994        -1.90853
C         30.91299        37.54698        -1.83616
C         30.96395        40.66806        -1.47350
C         30.89794        41.90920        -1.31608
C         33.08104        29.09169        -1.53868
C         32.00314        29.66711        -1.84055
C         33.08558        31.77958        -1.40689
C         31.87739        31.07292        -1.82619
C         33.09985        33.21346        -1.30499
C         31.93809        34.00148        -1.64138
C         33.07073        36.10577        -0.97377
C         31.93962        35.40245        -1.52457
C         33.04669        37.52142        -0.83147
C         31.96305        38.34022        -1.29260
C         33.11968        40.44123        -0.57400
C         31.98183        39.74524        -1.14317
C         33.10153        41.86335        -0.34505
C         31.92800        42.66350        -0.68609
C         33.02140        44.44248         0.35727
C         32.02735        44.01195        -0.30106
C         35.65383        27.47863        -0.84849
C         35.51923        28.88285        -0.91021
C         34.33175        29.61050        -1.17365
C         35.48899        31.73551        -0.71780
C         34.29537        31.05245        -1.09571
C         35.47683        33.16733        -0.58946
C         34.27715        33.90705        -0.87055
C         35.44600        35.98513        -0.26352
C         34.25858        35.32716        -0.66845
C         35.42562        37.39849         0.13263
C         34.14311        38.21081        -0.13753
C         35.44061        40.30012         0.29208
C         34.24352        39.67470        -0.16628
C         35.43078        41.69288         0.56036
C         34.22880        42.45515         0.32490
C         35.26201        44.34403         1.66941
C         34.20170        43.82169         0.74925
C         35.39981        45.86172         1.62094
C         37.97065        27.38012        -0.33390
C         36.69530        26.82698        -0.59481
C         37.94776        28.80365        -0.39053
C         36.76237        29.55170        -0.65109
C         37.90180        31.68777        -0.19938
C         36.73645        31.00609        -0.53750
C         37.84444        33.10157         0.31077
C         36.65603        33.86492        -0.21050
C         37.90490        35.99944         0.12044
C         36.66515        35.27019        -0.11125
C         37.90956        37.39796         0.17401
C         36.69065        38.14571         0.21875
C         37.92003        40.26530         0.58724
C         36.67361        39.54386         0.38672
C         37.89774        41.67338         0.86816
C         36.64962        42.37411         0.95029
C         37.85362        44.46736         1.39569
C         36.63235        43.73763         1.32517
C         37.86165        45.92455         1.63032
C         36.52067        46.38177         1.71925
C         40.31683        24.54767         0.24596
C         39.30851        25.25582        -0.00198
C         40.42037        27.30471         0.21488
C         39.17579        26.65643        -0.06475
C         40.44668        28.75401         0.22944
C         39.24564        29.49342        -0.25765
C         40.37037        31.71848         0.38289
C         39.19980        31.00714        -0.16368
C         40.37457        33.10259         0.43288
C         39.15416        33.86005         0.21781
C         40.38861        35.98258         0.46349
C         39.15050        35.24991         0.22277
C         40.40677        37.38380         0.50169
C         39.20627        38.16013         0.02579
C         40.37311        40.29027         0.75369
C         39.14887        39.58871         0.52619
C         40.38557        41.69518         0.96329
C         39.12445        42.39142         1.01956
C         40.34011        44.60301         1.00096
C         39.08510        43.79669         1.21506
C         40.34539        45.93328         1.74075
C         39.03511        46.63901         1.81887
C         40.29579        48.72240         1.92966
C         39.26314        48.00642         2.08310
C         42.84728        24.50115         0.79166
C         41.58990        25.09200         0.52100
C         42.84523        27.27087         0.72815
C         41.61846        26.55680         0.50312
C         42.84138        28.72810         0.78531
C         41.59124        29.44517         0.58510
C         42.86898        31.64091         0.48941
C         41.56284        30.93978         0.90408
C         42.85027        33.11819         0.85552
C         41.61038        33.82571         0.72907
C         42.77709        35.95988         1.15501
C         41.57246        35.22801         0.76066
C         42.80870        37.41284         1.00439
C         41.60774        38.12050         0.79865
C         42.79819        40.25571         1.19752
C         41.60232        39.55754         0.85515
C         42.85687        41.68732         1.19136
C         41.64115        42.40553         1.11357
C         42.81670        44.59478         1.12381
C         41.63080        43.84442         1.18267
C         42.80606        46.02281         1.03084
C         41.65525        46.74419         1.62965
C         42.66477        48.76985         0.84432
C         41.55645        48.25337         1.54522
C         43.88612        25.18138         0.96895
C         45.32609        27.26167         1.04947
C         44.08761        26.57947         0.94805
C         45.33682        28.74475         0.90368
C         44.03419        29.42748         0.96604
C         45.31546        31.65961         1.36586
C         44.04046        30.90423         1.11474
C         45.32444        33.11072         1.09344
C         44.06953        33.78369         1.07356
C         45.42308        35.97749         1.45504
C         44.07916        35.22955         1.37332
C         45.33714        37.44384         1.07429
C         44.04350        38.08938         1.21656
C         45.69659        40.45516         1.03313
C         43.93201        39.45368         1.51496
C         45.38535        41.75949         0.63250
C         44.19825        42.42696         1.36107
C         45.13417        44.57620         0.06712
C         44.10904        43.90486         0.98228
C         44.83607        45.97816        -0.37425
C         43.83179        46.70167         0.29456
C         43.55552        48.10508         0.25944
C         47.68527        27.43345         1.43196
C         46.60605        26.77089         1.29501
C         47.91123        28.80178         1.44009
C         46.63480        29.51521         1.10435
C         47.84255        31.67865         1.00235
C         46.64788        30.96133         1.59693
C         47.77957        33.06046         0.70643
C         46.54549        33.80947         0.90598
C         47.69685        35.92974         0.33998
C         46.56048        35.22223         0.81547
C         47.63477        37.33993         0.17539
C         46.48657        38.10891         0.58862
C         47.41517        40.15637        -0.60872
C         46.53602        39.55640         0.34332
C         47.25898        41.53581        -0.95739
C         46.22060        42.34331        -0.35567
C         46.93035        44.28510        -1.68521
C         46.10174        43.73472        -0.68243
C         46.64952        45.66525        -1.94714
C         45.76611        46.33897        -1.36351
C         50.43188        29.11792         1.54644
C         49.10428        29.57451         1.44214
C         50.28282        31.61731         0.56221
C         49.08622        30.96330         1.00073
C         50.08875        32.90865        -0.23275
C         48.91960        33.75142         0.22716
C         50.01042        35.79875        -0.57783
C         48.88502        35.15305        -0.01770
C         49.95739        37.25436        -0.88056
C         48.74960        38.05831        -0.49543
C         49.40371        39.96559        -2.04234
C         48.50551        39.38955        -1.14191
C         49.25709        41.35128        -2.44577
C         48.16039        42.11695        -1.91034
C         48.91606        43.91141        -3.21148
C         47.95001        43.49598        -2.29021
C         51.50498        29.67705         1.19456
C         52.64756        31.71557         0.03790
C         51.56267        30.96712         0.62213
C         52.47273        32.88752        -0.37501
C         51.36031        33.74427        -0.45947
C         52.20257        35.94154        -1.43616
C         51.24446        35.07913        -0.79231
C         52.07068        37.00226        -2.06228
C         50.80347        37.76575        -2.03596
C         51.46590        39.92746        -3.36264
C         50.51449        39.10567        -2.61104
C         51.30456        41.11456        -3.67095
C         50.22184        41.98482        -3.33521
C         49.92349        43.30915        -3.67858
O         39.55294        30.32170        -1.44187
O         50.00954        38.10153         0.31074
O         44.36708        31.35069         2.46900
O         41.20670        46.10980         2.87806
O         34.45620        37.66978         1.19466
O         50.06349        37.88010        -3.26756
O         45.27250        44.58310         1.54454
O         43.24418        35.55433         2.52902
O         46.15839        29.27914        -0.24671
O         45.03001        39.99683         2.17788
O         45.77485        35.99693         2.87748
H         44.93002        36.11487         3.37212
O         40.28725        45.01493        -0.41879
H         40.19164        44.20462        -0.96322
O         46.87816        30.90558         3.02738
H         46.00210        31.00150         3.46867
O         43.02404        31.53459        -0.94043
H         42.17086        31.76102        -1.36853
O         34.94828        43.95196         3.00403
H         34.03087        44.22901         3.20786
O         44.46864        42.41591         2.77982
H         45.15142        43.10307         2.94811
O         39.40050        38.28855        -1.43923
H         38.63732        38.79417        -1.79190
O         41.50901        31.02761         2.35314
H         40.63643        30.70412         2.65857
O         37.61012        32.96107         1.77004
H         37.49171        33.86352         2.13782
O         49.71460        32.45799        -1.58437
H         50.43310        31.87706        -1.91609
