         762
 CSIRO Nanostructure Databank - Neutral Graphene Oxide Data Set
C         23.29622        25.48295         1.60154
C         22.04073        26.14262         1.35537
C         22.78483        28.06863         0.01193
C         21.75320        27.22874         0.55689
C         22.86444        28.79229        -1.16274
C         21.66497        29.38373        -1.73184
C         22.93884        31.46810        -2.25559
C         21.69129        30.67178        -2.13600
C         22.90787        32.97230        -2.20153
C         21.66968        33.68573        -1.79743
C         22.80553        35.87604        -1.67146
C         21.61191        35.00957        -1.56788
C         22.77388        37.31542        -1.27419
C         21.63932        38.03972        -1.02265
C         22.77825        40.24378        -1.11151
C         21.65211        39.46969        -0.90686
C         22.76704        41.69307        -0.96788
C         21.60409        42.43795        -0.94392
C         22.80319        44.59313        -0.80955
C         21.62487        43.85276        -0.84683
C         22.77045        46.05049        -0.91760
C         21.71058        46.68214        -1.51745
C         22.73887        48.88875        -1.41198
C         21.70132        48.10106        -1.76237
C         25.75944        23.69165         1.83228
C         25.70936        24.91364         1.11011
C         24.55168        25.81047         1.11778
C         25.63968        27.30303        -0.56246
C         24.76452        27.08073         0.44749
C         25.48906        28.39552        -1.60925
C         24.18809        29.26623        -1.68986
C         25.56241        31.44484        -1.88970
C         24.26272        30.72943        -2.11597
C         25.55077        32.94331        -1.93630
C         24.23430        33.69599        -2.09502
C         25.34092        35.84433        -1.21432
C         24.14047        35.18224        -1.81528
C         25.30266        37.34900        -1.11684
C         24.03731        38.05068        -1.53981
C         25.36339        40.28119        -1.40408
C         24.03659        39.55644        -1.50077
C         25.34276        41.69810        -0.92783
C         24.04398        42.42042        -0.75973
C         25.28164        44.59340        -0.81538
C         24.07312        43.90514        -0.79019
C         25.29817        46.06109        -0.59165
C         23.98582        46.82701        -0.55553
C         25.22598        48.90563        -1.34964
C         23.95238        48.36619        -0.68607
C         25.46627        50.26811        -1.42196
C         28.06166        23.29925         1.13352
C         26.87795        22.87291         1.78125
C         28.04862        24.57053         0.49465
C         26.84166        25.30441         0.37275
C         28.07483        27.17362        -0.78074
C         26.79780        26.34665        -0.73042
C         28.09905        28.55101        -1.31424
C         26.78959        29.25740        -1.70272
C         28.00497        31.47754        -1.28829
C         26.72665        30.75632        -1.64268
C         27.97981        32.97588        -1.21570
C         26.74229        33.68572        -1.50124
C         27.90048        35.95476        -1.15002
C         26.65289        35.12115        -1.17217
C         27.86706        37.37276        -0.75298
C         26.57800        38.09054        -0.88114
C         27.88200        40.23503        -0.73288
C         26.65948        39.54193        -1.20723
C         27.89415        41.71311        -0.82902
C         26.61722        42.47328        -1.04066
C         27.77353        44.63595        -0.85930
C         26.57291        43.94403        -0.84302
C         27.82553        46.02818        -1.42848
C         26.50841        46.76156        -1.10341
C         28.18848        48.98843        -1.86017
C         26.26227        47.97553        -1.68613
C         28.00608        50.37178        -1.53695
C         26.72721        50.93504        -1.51214
C         30.46492        20.37551         1.21965
C         29.29801        21.12639         1.37452
C         30.48933        23.12294         0.65372
C         29.27780        22.50394         1.07322
C         30.49473        24.50510         0.26472
C         29.27383        25.19092         0.08351
C         30.49815        27.29285        -0.39379
C         29.26177        26.56712        -0.36722
C         30.48742        28.71251        -0.65853
C         29.31702        29.34834        -1.09499
C         30.57155        31.54033        -1.13382
C         29.33893        30.77427        -1.61235
C         30.57637        33.02067        -1.23623
C         29.26155        33.75667        -1.35291
C         30.33194        35.96134        -0.42126
C         29.23686        35.25952        -1.13015
C         30.24293        37.31377        -0.11996
C         29.02605        38.06296        -0.43598
C         30.14223        40.28327         0.24319
C         29.00108        39.53418        -0.37034
C         30.28034        41.75739         0.05178
C         29.02011        42.46796        -0.20805
C         30.29395        44.68059        -0.27202
C         28.99780        43.97760        -0.35362
C         30.30017        46.10318        -0.61820
C         29.14818        46.77819        -1.12116
C         30.54179        48.93576        -1.38232
C         29.23652        48.18058        -1.39826
C         30.41468        50.41419        -1.06377
C         29.21744        51.10466        -1.14806
C         30.32472        53.19576        -0.44497
C         29.18625        52.50723        -0.82749
C         33.13952        19.11448         1.72409
C         32.89959        20.11623         0.60542
C         31.67440        20.97443         0.84660
C         32.94331        23.03492         0.30591
C         31.70606        22.37249         0.60243
C         32.96355        24.44930         0.11788
C         31.73316        25.18102         0.05159
C         32.94968        27.30743        -0.24819
C         31.71657        26.59352        -0.19285
C         32.93943        28.73441        -0.39229
C         31.72365        29.44184        -0.58376
C         33.03475        31.60047        -0.74147
C         31.73805        30.86468        -0.81497
C         32.98561        33.13663        -0.56975
C         31.69395        33.79588        -0.67880
C         32.68149        35.77486         0.60686
C         31.48115        35.10430        -0.03228
C         32.59082        37.24898         0.95556
C         31.31972        38.01151         0.66629
C         32.50776        40.36429         1.37258
C         31.28537        39.53123         0.83566
C         32.65030        41.79708         0.79204
C         31.41544        42.49418         0.36432
C         32.59124        44.71548         0.67471
C         31.40366        43.95193         0.19739
C         32.62641        46.18537         0.35811
C         31.52035        46.85972        -0.38414
C         32.78514        49.01416        -0.31278
C         31.61898        48.22636        -0.62368
C         32.83887        50.38823        -0.44030
C         31.70315        51.18989        -1.01402
C         32.80046        53.27017        -0.10129
C         31.59660        52.58683        -0.44339
C         32.85697        54.71427         0.01743
C         35.41134        18.69382         0.86612
C         34.29433        18.43875         1.81086
C         35.43066        20.07327         0.16246
C         34.16676        20.89910         0.37986
C         35.42751        22.97978        -0.14446
C         34.16648        22.26496         0.22003
C         35.46426        24.46145        -0.10042
C         34.19877        25.15706        -0.00535
C         35.39648        27.27577        -0.24577
C         34.17003        26.57650        -0.11444
C         35.32142        28.61363        -0.62114
C         34.18587        29.43170        -0.45183
C         35.40186        31.58389         0.07606
C         34.27385        30.87728        -0.34224
C         35.36788        33.03355         0.28682
C         34.13411        33.80738         0.08438
C         35.16215        35.87373         1.04489
C         34.00219        35.10975         0.52923
C         35.17808        37.36864         1.01027
C         33.85735        38.03801         1.22833
C         35.10790        40.30663         1.46412
C         33.80831        39.53239         1.40415
C         35.08727        41.80397         1.40490
C         33.82106        42.48608         0.99513
C         35.19750        44.62877         0.70868
C         33.87507        44.00181         1.17356
C         35.20025        45.99985         0.17814
C         33.97705        46.85273         0.36385
C         35.29260        48.99011        -0.33786
C         34.02990        48.30736         0.07199
C         35.29711        50.45412        -0.16643
C         34.06419        51.12836        -0.19521
C         35.26698        53.22158         0.35090
C         34.01611        52.54150        -0.02429
C         35.27439        54.73228         0.56128
C         34.00731        55.40705         0.24051
C         38.08440        16.14260         2.17065
C         36.95146        16.90917         1.97313
C         37.94582        18.71721         0.49249
C         36.73034        17.96182         0.94851
C         37.95777        20.14237         0.53227
C         36.64882        20.87597         0.68317
C         37.99520        22.98799         0.15751
C         36.72755        22.24092         0.02738
C         37.98530        24.41823        -0.17023
C         36.67842        25.12752        -0.16808
C         37.93660        27.30493         0.46150
C         36.67428        26.59017         0.06368
C         37.98752        28.78512         0.65760
C         37.09693        29.60418         0.04195
C         37.71998        31.53079         1.40042
C         36.61878        30.86789         0.60131
C         37.71784        33.02702         1.33354
C         36.48516        33.69031         0.76252
C         37.68399        35.96745         0.79171
C         36.46996        35.15408         1.01126
C         37.67466        37.39563         1.15007
C         36.34715        38.07264         1.11422
C         37.63940        40.31364         0.83821
C         36.35373        39.56627         1.04425
C         37.69687        41.78708         1.11648
C         36.41194        42.55591         1.28498
C         37.69425        44.67958         0.78834
C         36.40708        43.98209         0.85995
C         37.72289        46.06655         0.57832
C         36.54398        46.72669         0.00373
C         37.78643        49.00096         0.04921
C         36.57692        48.21840        -0.26558
C         37.78766        50.42248        -0.10915
C         36.53773        51.16500        -0.16825
C         37.75268        53.35237        -0.09102
C         36.53296        52.54965         0.02967
C         37.76619        54.77741         0.31986
C         36.58753        55.45522         0.52734
C         37.82289        57.51016         1.06494
C         36.63048        56.85881         0.86211
C         40.70827        14.67736         2.81986
C         40.50149        15.50561         1.68577
C         39.21860        16.05758         1.32354
C         40.39056        18.75378         0.21509
C         39.14035        18.06593         0.21864
C         40.40211        20.15027         0.48386
C         39.15807        20.86090         0.52032
C         40.42033        23.03625         0.67850
C         39.17497        22.32709         0.45908
C         40.47681        24.42661         0.59719
C         39.30695        25.16542         0.05904
C         40.48123        27.35070         0.80882
C         39.27445        26.65214         0.27601
C         40.38190        28.68545         1.49168
C         39.04188        29.38871         1.50960
C         40.25396        31.56847         1.37270
C         39.05532        30.86742         1.50587
C         40.17155        32.94392         0.84360
C         38.92343        33.35584         0.50274
C         40.09821        36.04578         0.14526
C         38.78893        35.46727         0.16267
C         40.14926        37.39916         0.33865
C         38.96545        38.14369         0.82694
C         40.09411        40.31227         0.42701
C         38.94025        39.61004         0.66832
C         40.11542        41.75474         0.58358
C         38.96238        42.49499         0.79356
C         40.17560        44.62608         0.87638
C         38.95925        43.94775         0.90475
C         40.25013        46.07352         1.11014
C         38.88404        46.88782         0.96602
C         39.94267        49.20055         1.03351
C         38.87210        48.35700         0.67427
C         40.14640        50.46785         0.46362
C         39.00486        51.14245        -0.00489
C         40.29726        53.33559         0.28432
C         39.07280        52.61232        -0.17475
C         40.31491        54.68271         0.54918
C         39.09090        55.52320         0.21078
C         40.30443        57.46094         1.27530
C         39.08402        56.86419         0.89832
C         40.34470        58.82712         1.71257
C         43.12504        14.91070         2.61212
C         41.99930        14.35940         3.23683
C         42.96855        15.76249         1.49828
C         41.67130        15.95886         1.00936
C         42.84857        18.66422         0.51169
C         41.63005        18.06003         0.18261
C         42.84673        20.08715         0.71332
C         41.63802        20.80489         0.72024
C         42.88030        22.90855         1.34403
C         41.53664        22.20109         1.30310
C         42.90890        24.39931         1.20458
C         41.67106        25.18335         0.95666
C         42.91646        27.35362         1.34267
C         41.71834        26.57304         1.06864
C         42.88262        28.76770         1.44201
C         41.61871        29.49782         1.47706
C         42.80551        31.73411         1.36383
C         41.53600        30.88626         1.37508
C         42.67426        33.14835         0.75462
C         41.35270        33.80660         0.55681
C         42.61310        35.95334        -0.04636
C         41.29650        35.16322        -0.27683
C         42.61330        37.34386        -0.13208
C         41.35283        38.12015        -0.11819
C         42.63839        40.34519        -0.05570
C         41.33752        39.62910        -0.05923
C         42.68098        41.67709         0.25494
C         41.44241        42.38420         0.68663
C         42.70956        44.54857         0.36968
C         41.45774        43.87799         0.83238
C         42.73937        46.03660         0.32935
C         41.54759        46.74835         0.85624
C         42.84614        48.82072         0.49885
C         41.75711        48.05594         1.13248
C         42.78011        50.29604         0.24709
C         41.48614        51.07909         0.24461
C         42.84171        53.22442         0.52305
C         41.56139        52.58136         0.19072
C         42.81130        54.58122         0.93070
C         41.55584        55.33232         0.93256
C         42.75188        57.34813         1.72954
C         41.54744        56.70273         1.27319
C         42.71718        58.65917         2.15800
C         41.51292        59.41014         2.12810
C         45.34668        15.79956         0.82654
C         44.11745        16.49104         0.91943
C         45.32827        18.58582         0.54478
C         44.09116        17.88928         0.63479
C         45.36318        20.03406         0.66262
C         44.12228        20.78394         0.86747
C         45.40198        22.88288         1.27614
C         44.13233        22.14461         1.11121
C         45.45363        24.34618         1.07152
C         44.19815        25.06921         0.87788
C         45.48951        27.02825         1.60185
C         44.19229        26.60029         1.13538
C         45.38335        29.12231         1.56352
C         44.08202        29.60175         1.32571
C         45.20640        31.59235         0.49135
C         44.02316        30.95550         0.90300
C         45.11948        32.98114        -0.02881
C         43.83658        33.75841         0.02601
C         45.10807        35.91676        -0.12247
C         43.85780        35.24275        -0.06785
C         45.14257        37.35716        -0.21929
C         43.86499        38.07714        -0.40127
C         45.21604        40.35694        -0.45321
C         43.87134        39.60190        -0.45337
C         45.17591        41.70368         0.23090
C         43.95285        42.39824         0.33081
C         45.20972        44.49562         0.59077
C         43.98113        43.80019         0.48502
C         45.22295        45.94320         0.55198
C         44.06679        46.69437         0.47116
C         45.29393        48.86947         0.35891
C         44.13742        48.12873         0.50121
C         45.26179        50.31119         0.30793
C         44.06928        51.03791         0.28328
C         45.28273        53.17323         0.65596
C         44.06025        52.48458         0.45477
C         45.27193        54.53517         1.06467
C         44.03607        55.21026         1.25648
C         45.28420        57.33340         1.55187
C         44.03763        56.56724         1.91174
C         46.51455        16.44378         0.46640
C         47.79907        18.55057         0.19148
C         46.56082        17.86340         0.39603
C         47.91390        19.98942         0.60683
C         46.58352        20.68694         0.66188
C         47.88196        22.85838         0.58904
C         46.68524        22.11071         0.98160
C         47.94169        24.26611         1.00702
C         46.67259        25.02508         1.06525
C         47.94377        27.30182         1.28113
C         46.69927        26.45237         1.24634
C         47.85747        28.84923         1.06401
C         46.55575        29.60583         0.96909
C         47.65377        31.60234        -0.05063
C         46.46273        30.91073         0.42681
C         47.57676        33.00645        -0.22371
C         46.37038        33.74699        -0.11979
C         47.60354        35.87791         0.06022
C         46.33027        35.15274        -0.11623
C         47.60564        37.36730         0.08279
C         46.33945        38.09924        -0.13056
C         47.64562        40.16903         0.24995
C         46.41396        39.51097        -0.06754
C         47.62132        41.56950         0.70191
C         46.38784        42.37076         0.51148
C         47.69500        44.46075         1.05242
C         46.42139        43.76145         0.71231
C         47.72432        45.96954         0.97159
C         46.51584        46.64592         0.43963
C         47.83180        48.87476         0.55056
C         46.57075        48.14433         0.27627
C         47.82569        50.24133         0.46787
C         46.57008        50.99226         0.20455
C         47.82895        53.16058         0.82987
C         46.57224        52.50187         0.40549
C         47.77398        54.55836         1.14433
C         46.52289        55.24685         1.20885
C         46.45357        56.68258         1.32242
C         50.06813        18.59910        -0.70495
C         48.97089        17.89715        -0.26711
C         50.01483        20.06199        -0.84379
C         48.93348        20.79533        -0.18598
C         50.16308        22.99741        -0.34318
C         48.98152        22.20610         0.00026
C         50.26735        24.33767        -0.01384
C         49.22770        25.03635         0.78526
C         50.39065        27.29529         0.30299
C         49.22575        26.55745         0.91608
C         50.29846        28.78320         0.08019
C         49.04762        29.56168         0.42554
C         50.04606        31.55434        -0.76676
C         48.88806        30.90808        -0.20976
C         49.98659        32.99700        -1.11486
C         48.75803        33.73961        -0.70831
C         50.14731        35.89415        -0.45265
C         48.88233        35.14897        -0.24021
C         50.13412        37.38608        -0.47632
C         48.86054        38.11264        -0.23666
C         50.16673        40.16026         0.36773
C         48.89678        39.51779         0.20213
C         50.21491        41.56086         0.62793
C         48.96291        42.28227         0.90142
C         50.19785        44.43291         0.89648
C         48.99078        43.75187         0.91852
C         50.22176        45.90791         1.13256
C         49.00226        46.71413         0.91091
C         50.31350        48.82038         0.90741
C         49.04892        48.08639         0.75821
C         50.28707        50.24377         0.92380
C         49.12401        51.01421         0.33828
C         50.26386        53.16054         1.05100
C         49.04361        52.45957         0.81842
C         50.20783        54.55406         1.32863
C         49.00859        55.22618         1.39342
C         52.56032        20.17355        -1.36582
C         51.25182        20.85930        -1.31198
C         52.61278        22.98597        -0.93126
C         51.24967        22.39136        -1.22656
C         52.62973        24.39812        -0.77900
C         51.43635        25.10726        -0.42560
C         52.59347        27.20575        -0.87810
C         51.45002        26.50864        -0.39125
C         52.48342        28.64000        -1.25939
C         51.26659        29.41591        -0.88084
C         52.50271        31.59166        -1.27213
C         51.26041        30.89646        -0.96745
C         52.53341        33.01826        -1.36808
C         51.27403        33.75548        -1.36313
C         52.60080        35.98489        -0.92287
C         51.32447        35.26966        -1.13062
C         52.62723        37.28558        -0.43105
C         51.41965        38.06370        -0.20992
C         52.68839        40.09283         0.41586
C         51.39658        39.39939         0.18832
C         52.70920        41.58944         0.63301
C         51.42296        42.31888         0.66510
C         52.77982        44.43999         1.05600
C         51.44547        43.71129         0.81871
C         52.71276        45.88793         0.51320
C         51.52475        46.63488         1.09367
C         52.83868        48.70570         1.41160
C         51.51430        48.10649         1.00223
C         52.83601        50.22813         1.40272
C         51.48139        50.99319         1.28096
C         52.76343        53.07845         1.03195
C         51.51921        52.45150         1.06207
C         53.73633        20.83121        -1.24826
C         55.07230        22.96903        -1.05408
C         53.80889        22.27116        -1.05590
C         55.07384        24.37351        -1.04936
C         53.85345        25.10283        -0.93705
C         55.02564        27.28060        -1.25470
C         53.79460        26.52388        -1.09826
C         55.01663        28.69426        -1.29804
C         53.73430        29.38406        -1.73167
C         54.96322        31.60046        -1.23304
C         53.69646        30.86535        -1.42926
C         55.10210        33.04201        -1.68281
C         53.76411        33.77676        -1.64612
C         55.14770        35.93023        -1.21710
C         53.81824        35.29032        -1.38949
C         55.20612        37.36981        -0.87457
C         53.92231        38.00567        -0.34010
C         54.96701        40.24069        -0.65017
C         53.87686        39.44375        -0.15908
C         55.14959        41.59188        -0.02596
C         53.93403        42.36385         0.31256
C         55.23252        44.46573         0.25395
C         53.98157        43.72110         0.45911
C         55.23684        45.93370         0.34411
C         54.02786        46.64413         0.59830
C         55.23472        48.78391         0.58388
C         54.03565        48.03639         0.76427
C         55.24199        50.22019         0.68207
C         54.04001        50.96318         1.02481
C         53.97212        52.35852         0.96235
C         57.54270        22.91764        -1.22770
C         56.35275        22.28168        -1.05795
C         57.63311        24.35886        -1.53811
C         56.32360        25.12441        -1.30981
C         57.37241        27.35170        -0.76393
C         56.24329        26.59003        -1.06732
C         57.45117        28.72336        -1.01599
C         56.23312        29.39842        -1.22111
C         57.53222        31.61367        -0.99984
C         56.24218        30.86436        -1.06642
C         57.50019        32.98949        -0.88679
C         56.19310        33.74093        -0.83926
C         57.60723        35.89900        -1.22380
C         56.31537        35.21907        -1.18043
C         57.59208        37.35033        -1.65156
C         56.35601        38.13982        -1.35605
C         57.28834        40.54140        -1.60405
C         56.17133        39.59071        -1.38474
C         57.52756        41.70478        -0.95307
C         56.45301        42.32048        -0.11978
C         57.76148        44.46450         0.12464
C         56.41365        43.79558         0.00229
C         57.71452        45.97145         0.02590
C         56.44869        46.65534         0.19666
C         57.65047        48.81410         0.03812
C         56.44136        48.08551         0.25910
C         57.62096        50.21515         0.13013
C         56.44827        50.89765         0.43650
C         59.91743        24.54822        -2.65421
C         58.99622        25.01414        -1.70050
C         60.21645        27.19249        -1.65174
C         59.27282        26.27900        -1.15809
C         60.07713        28.69158        -1.42824
C         58.75433        29.42466        -1.20735
C         59.99127        31.57045        -0.73468
C         58.76673        30.88163        -0.91316
C         59.99592        32.97747        -0.54233
C         58.70769        33.76477        -0.44558
C         60.12035        35.78487        -1.10451
C         58.77004        35.18143        -1.02814
C         60.24529        37.26586        -1.45327
C         58.99794        38.00862        -1.84593
C         60.14428        40.20207        -1.28109
C         59.15803        39.46728        -1.89076
C         60.09783        41.67948        -1.26549
C         58.80947        42.43213        -1.20435
C         60.18744        44.51049        -0.57490
C         58.86699        43.88551        -0.75932
C         60.24463        45.93969        -0.06175
C         58.90080        46.65894        -0.12638
C         60.03922        48.76973        -0.64035
C         58.89105        48.10469        -0.23858
C         60.99500        25.35646        -3.03977
C         61.11310        26.68371        -2.60702
C         61.27492        29.46964        -1.03958
C         61.22430        30.79088        -0.74016
C         61.18803        33.71853        -0.27795
C         61.22507        35.07611        -0.42578
C         61.32984        38.08801        -0.86284
C         61.25692        39.43775        -0.73484
C         61.27001        42.39200        -1.16058
C         61.31426        43.79041        -0.85624
C         61.34983        46.72544        -0.72589
C         61.24506        48.05885        -0.94167
O         24.78077        41.83609         0.41030
O         49.87110        35.28295         0.84605
O         41.66091        43.03368         2.00581
O         56.80409        24.78134        -2.67431
O         52.87788        40.66480         1.76657
O         56.11619        41.56079         1.09458
O         48.93747        24.44153         2.08237
O         48.81291        29.58606         1.87235
O         38.57247        37.79982         2.22585
O         24.17679        29.66751        -3.10596
O         50.97552        46.19173         2.38744
O         34.10324        47.82363         1.46066
O         46.71274        47.24349        -0.88393
O         42.98138        23.77807         2.54179
O         37.11488        26.72606         1.53200
O         58.44295        26.72343        -0.12335
O         38.89066        24.77381        -1.27888
O         27.18419        48.42367        -2.65199
O         28.73399        35.86795        -2.36300
O         30.01321        33.47158        -2.55263
O         53.66520        34.73275        -2.75185
O         46.67457        51.90148        -0.94784
O         40.89419        48.77039         1.96356
O         40.14240        27.40811        -0.62863
O         45.52271        28.08644         2.49228
O         41.08592        38.92236        -1.32619
O         24.67349        46.43989         0.68562
O         27.63251        28.72472        -2.74479
O         43.75503        38.83830        -1.68800
O         35.71417        17.60611        -0.07451
O         47.65683        36.61522         1.33790
O         51.11482        34.73291        -2.45405
O         27.95618        32.09173         0.03182
O         32.18803        45.72468         1.67101
O         42.61408        49.32850        -0.86822
O         38.69858        34.25562        -0.52467
O         42.13600        34.05901         1.77826
O         23.93336        28.13796         0.81889
O         39.47048        46.52815         2.24425
O         31.74235        35.00306         1.42559
O         48.18578        41.73182         2.04112
O         41.52313        51.79113        -1.04745
O         36.74472        40.01185        -0.31806
O         46.24328        22.40855         2.36915
O         35.20548        53.82510         1.71265
O         59.33240        29.24084        -2.57042
O         60.60812        36.25123        -2.42839
O         49.36440        37.92028        -1.61247
O         47.53841        45.30423         2.26017
O         35.95962        48.54380        -1.55612
O         22.84096        32.27515        -3.48158
O         36.64242        30.85991         2.08451
O         48.93002        26.95873         2.28148
O         26.22000        39.97815        -2.53301
O         58.17781        40.14466        -2.61582
O         41.56961        16.70344        -0.17564
O         50.99842        28.25343         1.23991
O         51.34933        28.79017        -2.21603
O         30.14387        39.89688         1.67396
O         58.58998        43.54762        -2.14805
O         55.00524        40.12078        -2.13626
O         33.79734        38.63063         2.56662
O         37.25593        42.24651         2.43486
O         25.06089        33.45324        -3.26060
O         48.99225        33.40482        -2.11820
O         25.65413        37.81213         0.23593
O         27.49323        42.16272        -2.17063
O         50.28355        20.40146        -2.27675
O         44.22799        33.07553        -1.20639
O         58.23269        37.49884        -2.96561
O         38.46276        53.14166        -1.39415
O         28.64361        43.30420         0.92813
O         35.09098        41.08462         2.68652
O         31.57901        37.42779         1.98115
O         36.12011        22.38292        -1.29101
O         42.55134        45.26365        -0.90507
O         25.78361        35.26369         0.04823
O         44.21885        26.00706        -0.21866
O         41.22778        34.87121        -1.61968
O         52.12063        50.69060         2.58579
O         54.94128        37.44731         0.60592
O         35.88387        46.04728        -1.11159
O         23.98559        38.81645        -2.77161
O         39.15095        16.66673         0.06854
O         36.48510        29.18464        -1.13777
O         35.77333        35.39749         2.30079
O         55.43252        31.26707         0.12569
O         23.54175        35.82785        -2.96358
O         33.30774        32.47713        -1.86889
O         39.54258        28.68894         2.68816
O         33.91840        44.14602         2.61104
H         33.06205        43.84793         2.98463
O         60.60628        45.86321         1.35576
H         60.63167        46.77977         1.70230
O         48.41098        19.94139         2.00554
H         48.08931        20.74281         2.47434
O         58.49719        33.99398         1.01858
H         58.61745        33.12920         1.46823
O         52.97534        48.30298         2.81447
H         52.44131        48.94339         3.34119
O         36.40876        21.07640         2.10433
H         37.20978        21.48157         2.49965
O         27.85407        45.81528        -2.87522
H         27.74683        46.69993        -3.29748
O         53.02320        44.46727         2.47425
H         52.29332        44.98675         2.89245
O         23.90938        48.92203         0.64980
H         24.32525        48.25537         1.24551
O         49.36370        51.09917        -1.10906
H         48.53088        51.45791        -1.50364
O         41.11346        21.98215         2.68344
H         41.55672        22.68020         3.22248
O         39.23913        55.81605        -1.22476
H         39.12642        54.95340        -1.69623
O         45.47128        40.72584        -1.84746
H         45.06149        40.02094        -2.40471
O         29.38481        30.75148        -3.06229
H         30.20968        30.30466        -3.34418
O         32.21892        40.66590         2.74560
H         32.35711        39.84141         3.26542
O         55.55673        32.98825        -3.04536
H         55.11809        33.72359        -3.53488
O         44.12224        56.31486         3.36587
H         44.97792        55.86525         3.53313
O         32.64708        19.36048        -0.62098
H         33.48308        19.33963        -1.14125
O         52.40365        45.79304        -0.91005
H         53.20819        45.49178        -1.38309
O         37.97703        33.59645         2.64109
H         37.11873        33.74943         3.09252
O         25.43280        27.61819        -2.83346
H         25.31377        28.25322        -3.57801
O         55.73824        33.75217         0.53867
H         56.50588        34.03643         1.09019
O         50.95235        22.86645        -2.57723
H         50.35879        22.19789        -2.99118
O         43.11195        31.94205         2.77594
H         42.57974        32.72116         3.06670
O         53.74950        29.31146        -3.18975
H         52.80764        29.30193        -3.48161
O         26.73049        25.55794        -1.94640
H         26.41143        26.16471        -2.66123
O         35.54489        19.83849        -1.24877
H         35.80228        18.88964        -1.36501
O         32.08240        51.39761        -2.43183
H         32.02884        50.50619        -2.85937
O         58.20394        44.11670         1.47364
H         57.51108        44.39528         2.10897
O         30.99787        48.88663        -2.80449
H         30.23008        49.12769        -3.36854
H         23.19652        24.50879         2.10578
H         21.16858        25.58949         1.73932
H         20.70303        27.41833         0.28873
H         20.71068        28.84161        -1.65843
H         20.77285        31.14377        -2.51146
H         20.74855        33.08966        -1.72601
H         20.65634        35.47009        -1.27831
H         20.67539        37.52803        -0.88758
H         20.70663        39.95571        -0.62830
H         20.62811        41.94309        -1.04364
H         20.65870        44.37540        -0.84060
H         20.84608        46.10002        -1.86391
H         22.70060        49.97170        -1.59824
H         20.82479        48.53333        -2.26558
H         24.88399        23.36891         2.41305
H         24.62128        50.92933        -1.17234
H         26.85720        21.90641         2.30403
H         26.66787        52.01738        -1.32216
H         30.42725        19.28994         1.38662
H         28.37255        20.61850         1.67956
H         30.22050        54.24179        -0.12291
H         28.22745        53.04161        -0.84155
H         32.33222        18.91187         2.44434
H         31.94185        55.28500        -0.19570
H         34.42432        17.67618         2.59377
H         33.99927        56.50326         0.15104
H         38.10295        15.51568         3.07601
H         36.13580        16.75472         2.69606
H         37.78551        58.54663         1.42710
H         35.68737        57.39258         1.04139
H         39.84411        14.27549         3.36655
H         39.42771        59.43000         1.69904
H         44.12802        14.70708         3.01130
H         42.13593        13.70151         4.10573
H         43.62430        59.13676         2.55273
H         41.52304        60.45891         2.45508
H         45.36020        14.71569         1.00809
H         45.27559        58.43199         1.59082
H         47.43514        15.85587         0.35707
H         47.36761        57.27214         1.16223
H         50.89270        18.05712        -1.18608
H         48.98293        16.80208        -0.36674
H         51.13751        55.10299         1.53065
H         49.01150        56.29425         1.64767
H         52.56521        19.08957        -1.54446
H         52.81849        54.17205         0.93997
H         54.67067        20.25912        -1.33128
H         54.88441        52.93988         0.77311
H         58.47954        22.35028        -1.12179
H         56.36523        21.20052        -0.85712
H         58.53773        50.79981        -0.02162
H         56.49218        51.99185         0.50840
H         59.77431        23.56653        -3.12690
H         60.03492        49.85763        -0.78676
H         61.70739        24.97409        -3.78375
H         61.88396        27.33421        -3.04306
H         62.23526        28.93678        -0.97119
H         62.16172        31.29994        -0.47502
H         62.10455        33.19379         0.02976
H         62.17129        35.60885        -0.26128
H         62.23218        37.56940        -0.51168
H         62.08728        39.97688        -0.25774
H         62.23047        41.86291        -1.23752
H         62.30836        44.24400        -0.73927
H         62.30064        46.21675        -0.93726
H         62.09375        48.62068        -1.35789
