         344
 CSIRO Nanostructure Databank - Neutral Graphene Oxide Data Set
C          1.21940         3.51656         1.09375
C          0.07225         4.25295         1.16547
C          1.11312         6.24471         0.19449
C          0.03168         5.63580         0.75531
C          1.09412         7.65087        -0.29309
C         -0.12289         8.50256        -0.15604
C          1.24514        10.55913         0.25872
C         -0.06647         9.83222         0.02184
C          1.22449        12.06349        -0.02518
C          0.03849        12.84190         0.24438
C          1.10468        14.84782        -0.77938
C         -0.01753        14.16686        -0.03083
C          1.15026        16.34912        -0.59486
C         -0.03990        17.08023        -0.47835
C          1.13791        19.21917        -0.36147
C         -0.03244        18.47636        -0.27619
C          1.17537        20.64713        -0.14426
C         -0.00562        21.36794         0.11783
C          1.21439        23.46846         0.32087
C          0.01158        22.74040         0.33083
C          1.22138        24.89294         0.60767
C          0.07191        25.65429         0.76981
C          1.25953        27.78853         1.01607
C          0.08184        27.06611         0.96074
C          1.33868        29.22760         1.11417
C          3.65839         3.47128         0.73200
C          2.44905         4.10693         0.63011
C          3.59368         6.30157         0.47801
C          2.40531         5.47025        -0.02983
C          3.64287         7.68075        -0.12148
C          2.41324         8.38650        -0.46462
C          3.65873        10.62891        -0.24630
C          2.36773         9.92010        -0.58944
C          3.67425        12.00434        -0.28294
C          2.40686        12.73139        -0.33752
C          3.62455        14.87504        -0.56561
C          2.43183        14.16748        -0.52232
C          3.62578        16.33700        -0.65177
C          2.38411        17.03346        -0.62872
C          3.65786        19.23185        -0.58154
C          2.36766        18.52189        -0.88500
C          3.65479        20.64779        -0.43122
C          2.42021        21.36131        -0.19221
C          3.69327        23.47012        -0.00387
C          2.43903        22.76328         0.05960
C          3.75790        24.88317         0.27454
C          2.52926        25.55138         0.77368
C          3.74758        27.81967         0.64460
C          2.52829        27.04275         1.00568
C          3.81058        29.23734         1.09539
C          2.52499        29.90647         1.19505
C          6.13648         3.45269         0.40268
C          4.91363         4.15038         0.43897
C          6.12789         6.26996         0.16530
C          4.90626         5.56016         0.30523
C          6.15033         7.69750         0.12677
C          4.86664         8.41319         0.20633
C          6.16803        10.59131        -0.04216
C          4.87803         9.90637         0.11422
C          6.13623        12.03221        -0.15113
C          4.92467        12.73321        -0.21321
C          6.08374        14.88823        -0.45204
C          4.90515        14.18308        -0.40044
C          6.13711        16.34121        -0.87569
C          4.83442        17.06940        -0.67560
C          6.12942        19.22128        -0.63050
C          4.86308        18.50239        -0.62277
C          6.12698        20.65452        -0.68649
C          4.88132        21.36892        -0.51879
C          6.09792        23.55470        -0.62026
C          4.86895        22.78218        -0.36017
C          6.19154        24.95340        -0.15760
C          4.95849        25.58752         0.20991
C          6.27567        27.71664         0.59949
C          4.99289        27.05936         0.35909
C          6.29307        29.01665         1.36348
C          5.02000        29.82745         1.28877
C          8.60249         3.41842         0.27070
C          7.37518         4.12281         0.23958
C          8.57783         6.29028         0.00253
C          7.36871         5.56538         0.12026
C          8.60018         7.69724        -0.03451
C          7.35783         8.41584         0.05860
C          8.64882        10.59189         0.17144
C          7.34643         9.86333        -0.00146
C          8.58515        12.04276        -0.22144
C          7.40258        12.72955        -0.21575
C          8.58003        14.89283        -0.74729
C          7.38462        14.23157        -0.05594
C          8.63081        16.38131        -0.53924
C          7.33278        17.08082        -0.22900
C          8.60138        19.21447        -0.69749
C          7.35578        18.53709        -0.60191
C          8.59911        20.64212        -0.78156
C          7.36273        21.33608        -0.77214
C          8.66426        23.51276        -0.70647
C          7.38246        22.80357        -0.86961
C          8.67260        24.94180        -0.40013
C          7.41442        25.62431        -0.10547
C          8.70636        27.67226         0.54597
C          7.46479        27.01420         0.35664
C          8.74265        29.07788         0.86724
C          7.55642        29.77616         1.12399
C         11.05927         3.40225         0.30718
C          9.86139         4.07761         0.16857
C         11.07499         6.29903         0.09027
C          9.84356         5.52184        -0.28738
C         11.08348         7.73292        -0.28863
C          9.86047         8.42495        -0.21577
C         11.08236        10.54157        -0.46973
C          9.87735         9.84302        -0.28540
C         11.01564        11.97759        -0.94581
C          9.89194        12.74705        -0.26900
C         11.11345        14.94428        -0.74709
C          9.87777        14.22088        -0.38629
C         11.07355        16.32514        -0.83961
C          9.82470        17.05558        -0.70536
C         11.07683        19.21750        -0.83266
C          9.84703        18.51224        -0.73387
C         11.07570        20.65092        -0.86478
C          9.84199        21.35246        -0.85714
C         11.09208        23.54872        -1.15468
C          9.83573        22.78986        -0.82297
C         11.19319        24.85024        -0.36272
C          9.88216        25.57926        -0.19784
C         11.21423        27.68330         0.23708
C          9.97569        26.88051         0.55169
C         11.20869        29.07920         0.53610
C         10.00464        29.74181         0.88230
C         13.60687         3.41954        -0.03089
C         12.39185         4.07529         0.56027
C         13.54776         6.24903        -0.36572
C         12.35508         5.58662         0.31015
C         13.56074         7.74276        -0.20372
C         12.32163         8.43836        -0.31547
C         13.56120        10.59482        -0.32786
C         12.32030         9.85925        -0.43801
C         13.56782        12.01425        -0.36010
C         12.40213        12.75406        -0.97353
C         13.52559        14.93064        -0.35413
C         12.34032        14.21728        -0.61369
C         13.55958        16.32278        -0.53016
C         12.36359        17.03403        -1.13241
C         13.54851        19.19486        -0.79006
C         12.33525        18.51662        -0.85797
C         13.56469        20.64227        -0.82861
C         12.33872        21.36582        -0.89603
C         13.59594        23.49280        -1.01664
C         12.37644        22.77749        -0.98107
C         13.61737        24.96342        -0.98505
C         12.30155        25.73035        -0.96278
C         13.56187        27.81710        -0.39622
C         12.37754        27.06989        -0.25135
C         13.56609        29.19462        -0.08327
C         12.41269        29.81783         0.37460
C         16.06753         3.44020        -0.19405
C         14.83861         4.11415        -0.10396
C         16.03423         6.30206         0.03161
C         14.84089         5.56465        -0.08269
C         16.00819         7.74342         0.11794
C         14.76896         8.44796        -0.04551
C         15.96886        10.60545         0.20647
C         14.76364         9.88700        -0.04945
C         15.92555        12.02423         0.27409
C         14.73682        12.71961        -0.00394
C         16.01959        14.90185        -0.03074
C         14.70493        14.21650         0.25985
C         16.02404        16.32506        -0.27494
C         14.79025        17.03796        -0.44595
C         16.03286        19.13170        -0.67839
C         14.80250        18.45216        -0.65891
C         16.04600        20.56865        -1.02789
C         14.78929        21.34990        -0.93462
C         16.10476        23.46816        -1.22321
C         14.81456        22.75437        -1.05372
C         16.09231        25.00434        -1.15604
C         14.78224        25.67688        -1.00203
C         16.05111        27.80120        -0.45327
C         14.78632        27.19561        -1.03943
C         16.04509        29.16602        -0.11231
C         14.80941        29.98368        -0.38323
C         18.54101         3.46274         0.21541
C         17.35529         4.17953        -0.37544
C         18.46137         6.31952         0.39894
C         17.27667         5.61474         0.08320
C         18.44821         7.74830         0.51359
C         17.21428         8.46606         0.33837
C         18.42478        10.60969         0.63134
C         17.19666         9.88810         0.41999
C         18.42436        12.03211         0.65890
C         17.12657        12.79522         0.76941
C         18.46098        14.86223         0.17372
C         17.20170        14.20647         0.21689
C         18.54818        16.26735        -0.37227
C         17.24834        17.03198        -0.32074
C         18.52205        19.16986        -0.36701
C         17.26272        18.43725        -0.48853
C         18.55996        20.56216        -0.50395
C         17.36453        21.29759        -0.94922
C         18.53938        23.44781        -0.65639
C         17.36005        22.77003        -0.86917
C         18.62578        24.95688        -0.84769
C         17.30824        25.68363        -0.71361
C         18.45346        27.72112         0.11432
C         17.27286        27.05484        -0.34139
C         18.38898        29.06211         0.57716
C         17.17187        29.78053         0.43502
C         19.63563         4.14517         0.62540
C         20.84754         6.30682         0.92317
C         19.67341         5.59487         0.62835
C         20.84947         7.69798         0.95589
C         19.66308         8.44580         0.74954
C         20.85492        10.63893         0.86596
C         19.65638         9.89699         0.75903
C         20.84963        12.02002         0.81521
C         19.63522        12.74442         0.71716
C         20.82457        14.95715         0.77278
C         19.63851        14.19891         0.55992
C         20.83714        16.33660         0.64698
C         19.71921        17.05547         0.16809
C         20.90207        19.23230         0.27262
C         19.71960        18.46368         0.02894
C         20.92852        20.59274         0.12060
C         19.75825        21.31580        -0.27357
C         20.99879        23.48257        -0.31751
C         19.76301        22.72649        -0.40870
C         20.99574        24.81831        -0.11820
C         19.68442        25.52890         0.10845
C         20.80275        27.61666         0.99204
C         19.80752        27.05681         0.00671
C         20.67154        28.89643         1.47419
C         19.51637        29.66099         1.21013
O          2.72062        26.12980         2.13188
O         10.09240        13.57463         0.92462
O          4.16262        27.69507        -0.75297
O          1.68846         7.76574        -1.65292
O          4.74759         9.24538         1.46342
O         10.58033        11.83050        -2.28432
O          6.59533        23.34683        -1.99537
O         16.82170        20.83157        -2.25130
O         16.23726        24.27562        -2.44251
O         11.68801         6.22196         1.44188
O         14.71465        27.55939        -2.45902
H         14.68872        28.55035        -2.49294
O          6.34996        28.58561         2.80568
H          7.27419        28.30451         2.98207
O          1.59048        10.37789         1.65397
H          0.94140        10.86773         2.19976
O          6.38165        16.37295        -2.32881
H          5.55759        16.08761        -2.77862
O          2.08827        10.25840        -1.96822
H          1.72436         9.44364        -2.39235
O         11.98597        26.09954        -2.32294
H         12.78180        26.54346        -2.69673
O          7.14322        17.08682         1.21414
H          7.37717        16.18237         1.55185
O          2.24602        18.62192        -2.37190
H          1.45094        18.10300        -2.62413
O         10.16193        26.48501         2.00153
H          9.34225        26.01658         2.27295
O          9.92432         5.45666        -1.75068
H          9.12972         4.98118        -2.07270
O         12.58514         3.90447         2.01040
H         12.14441         4.67978         2.43593
O         14.78490        30.30921        -1.79676
H         15.63933        30.73253        -2.02213
O          3.38857         6.49143         1.91594
H          3.98194         7.21771         2.21096
O         18.83394        16.09248        -1.81811
H         18.86796        16.98847        -2.21769
O         16.89612        12.97912         2.22753
H         16.86946        12.08570         2.63325
O          8.46392        14.66212        -2.17514
H          7.75234        15.25926        -2.52265
O         20.33283        27.35424        -1.32417
H         20.40306        28.32863        -1.40138
O         19.21179        25.22097         1.44461
H         19.81518        25.65366         2.08543
O         13.27769         5.99594        -1.79689
H         14.06086         6.29093        -2.30847
O          7.54044        14.45122         1.39055
H          6.82569        13.95729         1.84494
O         17.61294         4.24194        -1.84851
H         18.49233         4.66136        -1.96623
O         12.75808        12.87627        -2.38182
H         11.96888        12.45537        -2.86286
O          2.56987         5.23432        -1.44743
H          2.34650         6.08040        -1.90904
O          0.81410        14.64441        -2.21094
H          0.85234        13.67778        -2.37755
O         10.96269        23.84614        -2.56819
H         10.84188        23.00028        -3.04696
O         19.04873        25.16062        -2.21941
H         18.30619        24.86164        -2.79292
O         12.57122        16.92593        -2.59228
H         12.52718        15.97294        -2.82682
O         11.64079        24.47188         0.96877
H         11.37004        25.19078         1.59500
O         14.50656        14.35209         1.70794
H         15.29955        13.94714         2.14443
O          8.84780        10.64263         1.64204
H          8.11250        11.16772         2.02438
H          1.23415         2.47526         1.44956
H         -0.84910         3.80220         1.56033
H         -0.90946         6.18866         0.89714
H         -1.10306         8.01014        -0.26174
H         -1.00882        10.39972         0.07990
H         -0.82656        12.34819         0.71323
H         -0.94060        14.72241         0.18542
H         -1.00825        16.56301        -0.47365
H         -0.98737        18.95890        -0.02636
H         -0.97340        20.85070         0.14841
H         -0.94021        23.25085         0.52831
H         -0.91322        25.17438         0.68621
H         -0.88252        27.59316         1.00660
H          0.39308        29.78707         1.17959
H          3.70698         2.44039         1.11693
H          2.51744        30.99580         1.35006
H          6.13646         2.35925         0.52556
H          5.07668        30.89034         1.57171
H          8.58548         2.33436         0.46303
H          7.59655        30.84875         1.36501
H         11.02270         2.32197         0.52595
H         10.03467        30.81915         1.10328
H         13.60580         2.32446        -0.14289
H         12.41240        30.90074         0.56831
H         16.08802         2.34048        -0.16072
H         14.83030        30.94036         0.20875
H         18.53849         2.36242         0.21841
H         17.12483        30.83425         0.74828
H         20.52659         3.60615         0.98250
H         21.77953         5.75624         1.11656
H         21.79527         8.21387         1.16774
H         21.81880        10.12073         0.95383
H         21.80937        12.55186         0.84836
H         21.73210        14.46016         1.13973
H         21.74521        16.87286         0.95496
H         21.82576        18.72280         0.57622
H         21.86354        21.13246         0.32017
H         21.95577        22.95352        -0.43239
H         21.94185        25.37724        -0.08115
H         21.72984        27.05614         1.18249
H         21.47279        29.33373         2.08837
H         19.43934        30.69203         1.58090
