         244
 CSIRO Nanostructure Databank - Neutral Graphene Oxide Data Set
C          1.43854         2.06323        -0.69476
C          1.34574         3.45285        -0.30179
C          2.56371         1.34788        -0.46994
C          2.46666         4.14993         0.06811
C          1.17705         6.33437         0.39981
C          1.17159         7.69118         0.38593
C          2.45482         5.57144         0.59516
C          2.38832         8.46187         0.44150
C          1.18621        10.64309         0.62667
C          1.19254        12.06141         0.58823
C          2.36066         9.88149         0.58148
C          2.35308        12.80324         0.53480
C          1.60257        14.99545         1.48676
C          1.67631        16.32475         1.62221
C          2.29997        14.29978         0.32071
C          2.46150        17.14156         0.62210
C          2.72895        18.55421         1.07623
C          3.73192         1.97785         0.26138
C          3.74684         3.47360         0.07041
C          5.03954         1.32608        -0.05032
C          4.92597         4.18522        -0.08074
C          3.65752         6.37367         0.16624
C          3.64025         7.75847         0.25493
C          4.85069         5.66069        -0.42111
C          4.88738         8.51520         0.12369
C          3.64745        10.59046         0.72002
C          3.64024        12.12534         0.69265
C          4.89760         9.90815         0.34691
C          4.88919        12.81513         0.32752
C          3.66099        14.95046         0.12471
C          3.71946        16.40028         0.20473
C          4.85175        14.24059         0.07360
C          4.88626        17.06370        -0.03914
C          3.91069        19.16531         0.93529
C          5.15823        18.45001         0.48943
C          6.21383         2.05204        -0.20165
C          6.18310         3.50705        -0.18987
C          7.45503         1.39218        -0.41524
C          7.38845         4.23492        -0.33427
C          6.15740         6.39080        -0.22339
C          6.12012         7.83423        -0.09373
C          7.34530         5.68614        -0.30863
C          7.32107         8.58525        -0.09036
C          6.10112        10.66583         0.29412
C          6.07950        12.11063         0.30565
C          7.33056         9.98285         0.08262
C          7.37441        12.88433         0.37203
C          6.09663        14.91416        -0.30004
C          5.98380        16.34435        -0.79791
C          7.28627        14.24491        -0.27998
C          7.29534        17.09044        -0.81712
C          6.01966        19.22337        -0.51994
C          7.33851        18.49482        -0.67897
C          8.66434         2.11000        -0.58709
C          8.63588         3.56476        -0.49296
C          9.86126         1.44476        -0.86046
C          9.88188         4.26177        -0.44346
C          8.62245         6.41238        -0.46043
C          8.59654         7.89901        -0.34152
C          9.90661         5.70423        -0.22620
C          9.84363         8.61258        -0.04114
C          8.58050        10.72304        -0.05150
C          8.59374        12.10480        -0.03813
C          9.83426         9.98660        -0.10708
C          9.82655        12.83398        -0.26609
C          8.51435        14.83601        -0.86337
C          8.48648        16.33069        -1.19050
C          9.81308        14.16729        -0.66133
C          9.77639        17.06593        -1.41940
C          8.53576        19.19894        -0.71641
C          9.79357        18.55882        -1.12678
C         11.11485         2.19428        -1.19591
C         11.10058         3.58050        -0.59908
C         12.35213         1.41949        -0.84913
C         12.32896         4.21758        -0.26285
C         11.06094         6.37584         0.06669
C         11.07775         7.86435         0.38743
C         12.28774         5.56391         0.44002
C         12.32633         8.59116        -0.05227
C         11.08211        10.72420        -0.12505
C         11.07179        12.10010        -0.20213
C         12.33090         9.96957        -0.20010
C         12.34356        12.86903        -0.00120
C         11.07811        14.76317        -1.26918
C         11.07979        16.29826        -1.42160
C         12.34567        14.24542        -0.61447
C         12.35196        17.08011        -1.18309
C         11.07626        19.20482        -0.83516
C         12.28441        18.53737        -0.88079
C         13.51969         2.05517        -0.48372
C         13.51128         3.49567        -0.26841
C         14.73932         1.31648        -0.23319
C         14.77744         4.15165         0.21196
C         13.60370         6.35392         0.32546
C         13.60186         7.87554         0.08085
C         14.80178         5.63298        -0.02908
C         14.84339         8.52859        -0.31225
C         13.56204        10.70007        -0.40056
C         13.58480        12.08144        -0.33716
C         14.82457         9.95861        -0.76869
C         14.81780        12.81127        -0.36203
C         13.54370        14.93313        -0.60636
C         13.58826        16.36637        -0.78576
C         14.79960        14.22937        -0.34229
C         14.74871        17.07932        -0.52463
C         13.50894        19.21603        -0.61708
C         14.73342        18.53604        -0.50245
C         15.97249         1.94638        -0.12357
C         15.98435         3.42288        -0.32359
C         17.20280         1.27508         0.09003
C         17.27749         4.16560        -0.44452
C         16.02059         6.35150        -0.55883
C         16.05390         7.83133        -0.26255
C         17.30027         5.62494        -0.24099
C         17.28852         8.51737        -0.14994
C         16.07765        10.68437        -0.34608
C         16.06125        12.09258        -0.26871
C         17.27387         9.96774        -0.09238
C         17.27213        12.81015        -0.05165
C         16.00691        14.95156        -0.21134
C         15.99064        16.39020        -0.24224
C         17.25535        14.24341        -0.04971
C         17.16267        17.12178        -0.02957
C         15.94638        19.23468        -0.31760
C         17.17462        18.56027        -0.13240
C         18.44200         1.94339         0.09340
C         18.53374         3.37128        -0.29830
C         19.62827         1.29626         0.50159
C         19.78276         4.14251         0.07702
C         18.50549         6.31083         0.02277
C         18.51188         7.78798         0.09054
C         19.71031         5.61077         0.22369
C         19.66416         8.46346         0.45108
C         18.44949        10.68413         0.24522
C         18.48122        12.10222         0.20152
C         19.64447         9.92562         0.63789
C         19.72205        12.83161         0.33695
C         18.46232        14.94395         0.09778
C         18.41758        16.40753         0.24608
C         19.71612        14.25658         0.21605
C         19.70550        17.17766         0.21821
C         18.39858        19.27879        -0.10550
C         19.65311        18.64332        -0.02808
C         20.79492         2.00992         0.82371
C         20.87014         3.40065         0.73479
C         21.95705         4.16234         1.28997
C         21.03410         6.31943         0.35446
C         20.91811         7.74634         0.91468
C         22.03167         5.51061         1.15472
C         22.16573         8.53512         0.56803
C         20.96404        10.67843         0.74628
C         20.95743        12.14552         0.50166
C         22.18582         9.87479         0.50569
C         22.14788        12.87660         0.50665
C         20.95218        14.97673         0.19312
C         20.95495        16.44047        -0.22468
C         22.14344        14.26795         0.32811
C         22.17719        17.25523         0.11979
C         20.87258        19.32406        -0.06543
C         22.10376        18.61881         0.10973
O         13.74241         7.30244         1.47827
O         20.22181        10.31895         1.96095
O         19.53135         3.67349        -1.31625
O         11.91496        16.70312        -2.54875
O          3.76245        11.37016         1.95609
O         16.45124         3.78708        -1.65346
O          8.65176         7.23954        -1.68747
O         19.14268        16.81687         1.50035
O          9.68469        18.00144        -2.51618
O          8.25896        15.31564        -2.24416
O         21.55965         6.45586        -1.00481
H         21.47194         5.58398        -1.44714
O         20.86462        16.41111        -1.69182
H         21.71579        16.07091        -2.03904
O          5.54406        16.30787        -2.20630
H          6.28633        15.89010        -2.70667
O         12.15541         5.20258         1.85733
H         11.81182         5.99711         2.32664
O         15.85649         6.33966        -2.03882
H         16.00655         5.39962        -2.32105
O          5.99830        18.28729         1.67293
H          5.48817        17.78079         2.33931
O         11.12608         2.37848        -2.67588
H         10.35907         2.94753        -2.90150
O         14.82461         3.98902         1.67166
H         13.98246         4.36724         2.02872
O         11.09844         7.92696         1.87498
H         12.05530         7.93116         2.13165
O         12.40600        13.11313         1.45870
H         12.44981        12.23850         1.90116
O          5.35361        19.26620        -1.78692
H          5.37001        18.35736        -2.17146
O          2.59249         5.39097         2.06459
H          2.57413         6.28534         2.46856
O          1.50861        14.52422        -0.87185
H          1.39076        15.50503        -0.96455
O          1.62830        17.25456        -0.58243
H          2.14385        17.75677        -1.24946
O         20.83209         7.63868         2.35866
H         20.66721         8.55347         2.69403
O          3.47550         1.72947         1.69799
H          2.73314         2.31838         1.95574
O          4.61448         5.71059        -1.88142
H          5.46396         5.49955        -2.32502
O         14.83138         9.90610        -2.24830
H         15.48242         9.22155        -2.51628
O         11.12629        14.21620        -2.62107
H         11.58258        14.88779        -3.18086
O          7.57807        13.17526         1.80948
H          7.47522        12.32986         2.29673
H          0.55799         1.59039        -1.15396
H          0.36074         3.93718        -0.34370
H          2.60827         0.27458        -0.70663
H          0.22190         5.79046         0.40232
H          0.20904         8.21911         0.33451
H          0.20889        10.14252         0.59459
H          0.22701        12.58132         0.51006
H          1.01332        14.38919         2.19184
H          1.15056        16.84341         2.43872
H          1.86023        19.11933         1.44998
H          5.07616         0.22608        -0.07675
H          4.02581        20.21683         1.24303
H          7.47362         0.29301        -0.45944
H          6.18405        20.27440        -0.17825
H          9.85978         0.34748        -0.94495
H          8.53847        20.28132        -0.52001
H         12.33390         0.32497        -0.96169
H         11.06278        20.26742        -0.54879
H         14.68594         0.21725        -0.20467
H         13.48884        20.30952        -0.49771
H         17.18708         0.19512         0.30249
H         15.93825        20.33458        -0.34592
H         19.59604         0.21504         0.69952
H         18.36489        20.37258        -0.22366
H         21.64700         1.46170         1.25214
H         22.73765         3.62090         1.84631
H         22.87785         6.05126         1.60357
H         23.09133         7.97191         0.37782
H         23.11561        10.39707         0.23560
H         23.11029        12.36651         0.64834
H         23.10859        14.79246         0.30321
H         23.15241        16.76486         0.25138
H         20.88719        20.41851        -0.16639
H         23.02245        19.20840         0.24837
