         576
 CSIRO Nanostructure Databank - Neutral Graphene Oxide Data Set
C          6.00101        18.99431         0.67378
C          5.98347        20.38292         0.78078
C          4.73605        21.11283         0.58176
C          5.51042        23.48016         0.73972
C          4.52840        22.46104         0.40862
C          5.81044        24.70166         0.18690
C          8.47515        14.72639         0.43830
C          8.41471        16.09264         0.25969
C          7.22231        16.84967         0.54451
C          8.54822        18.94267         0.47390
C          7.20815        18.23307         0.53722
C          8.44531        20.42876         0.32552
C          7.26571        21.07863         0.77385
C          8.43242        23.25363         0.62749
C          7.34990        22.44963         1.03868
C          8.31027        24.68287         0.57919
C          7.08368        25.40069         0.41698
C          8.28618        27.61687         0.24400
C          7.10796        26.81046         0.24115
C          8.28017        29.00178         0.11881
C         10.60988        10.41128        -0.25928
C         10.80666        11.75363        -0.05879
C          9.65164        12.57119         0.28311
C         10.82575        14.61210        -0.46902
C          9.62804        13.93381         0.09717
C         10.80473        16.09657        -0.72974
C          9.51439        16.80822        -0.45294
C         10.79821        19.01754        -1.00084
C          9.51266        18.29642        -0.50801
C         10.78970        20.57962        -0.72496
C          9.60325        21.16183         0.04329
C         10.84699        23.32316         0.09086
C          9.61991        22.56742         0.22927
C         10.82658        24.69193         0.24137
C          9.58688        25.41993         0.57289
C         10.86233        27.61727         0.18626
C          9.57884        26.92320         0.45674
C         10.85940        29.08742        -0.01214
C          9.51521        29.80677        -0.02602
C         10.76728        31.95917         0.28987
C          9.56098        31.24986         0.22018
C         10.77512        33.38845         0.33604
C         13.39534         6.07591        -0.68081
C         13.22952         7.53560        -0.93159
C         12.09014         8.30843        -0.33445
C         13.58971        10.40975        -0.05695
C         11.52380         9.42693        -0.92310
C         13.31050        11.77889        -0.64291
C         12.15039        12.48541         0.07731
C         13.29049        14.66582        -0.43699
C         12.12926        13.94971        -0.31795
C         13.29302        16.12588        -0.47504
C         12.08154        16.85117        -0.59131
C         13.30413        18.95601        -0.47295
C         12.08334        18.27846        -0.57468
C         13.32644        20.46120        -0.67477
C         12.07202        21.08662        -0.04978
C         13.30400        23.27042         0.01712
C         12.11086        22.60574        -0.07111
C         13.31698        24.71182         0.49201
C         12.09348        25.45364        -0.06022
C         13.30177        27.66083         0.45762
C         12.03406        26.93253         0.25609
C         13.34125        29.12870         0.36957
C         12.09283        29.85214         0.28875
C         13.24754        31.96589         0.79185
C         12.03324        31.23556         0.38007
C         13.24120        33.47205         0.72028
C         11.96258        34.16417         0.37891
C         13.21805        36.28163        -0.23476
C         11.97531        35.54751         0.21693
C         13.26840        37.78515        -0.09708
C         15.86419         6.08172        -1.04650
C         14.59621         5.44015        -0.72964
C         15.82472         7.50507        -1.58264
C         14.54111         8.25707        -1.20579
C         15.83285        10.36912        -0.73597
C         14.65736         9.66727        -0.80180
C         15.81551        11.81117        -0.49990
C         14.62975        12.50738        -0.48768
C         15.82872        14.65720        -0.13699
C         14.61509        13.98661        -0.72563
C         15.77216        16.10077        -0.01251
C         14.53087        16.81551        -0.27614
C         15.75770        18.96233        -0.08468
C         14.52817        18.24156        -0.27389
C         15.74084        20.39444        -0.01987
C         14.57740        21.13590        -0.16309
C         15.76342        23.31381        -0.07187
C         14.57712        22.57437        -0.06122
C         15.77808        24.76566        -0.06747
C         14.59098        25.44824         0.15703
C         15.83597        27.65366         0.12913
C         14.60953        26.89411         0.39583
C         15.82804        29.05745         0.17471
C         14.57852        29.77259         0.40495
C         15.87091        31.95257         0.64167
C         14.58059        31.20106         0.77792
C         15.84147        33.47838         0.50754
C         14.53764        34.21761         0.56675
C         15.69373        36.32310        -0.03652
C         14.53453        35.63582         0.11923
C         15.76532        37.81681         0.12486
C         14.42359        38.47453        -0.11336
C         18.37025         6.09359        -1.07597
C         17.07103         5.44109        -0.92011
C         18.36477         7.53219        -1.58496
C         17.09697         8.21062        -1.11573
C         18.38995        10.41523        -0.63260
C         17.12241         9.65919        -0.78389
C         18.28703        11.79443        -0.20148
C         17.07989        12.49635        -0.26012
C         18.19764        14.58198         0.57082
C         16.99416        13.91907         0.03918
C         18.15518        16.08179         0.69311
C         16.94023        16.81546         0.28458
C         18.20975        18.94177         0.28248
C         16.98164        18.25309         0.18425
C         18.26310        20.36752        -0.06166
C         17.00644        21.11537         0.20084
C         18.31850        23.27745        -0.30127
C         17.04031        22.60549         0.08224
C         18.29422        24.79482        -0.36900
C         17.01880        25.50023        -0.15429
C         18.28920        27.62139        -0.09944
C         17.03897        26.90706        -0.07273
C         18.27655        29.05263        -0.21914
C         17.05506        29.77817        -0.09520
C         17.91400        32.04204        -0.65298
C         16.97535        31.23830        -0.05471
C         18.11623        33.45497        -0.44894
C         16.97598        34.17664        -0.10279
C         18.24705        36.32747        -0.26018
C         16.93504        35.61733        -0.49067
C         18.23364        37.76238        -0.45661
C         16.99932        38.41990        -0.50584
C         20.85767         6.13371        -0.61327
C         19.53860         5.43245        -0.85073
C         20.92787         7.58491        -1.10445
C         19.64640         8.34142        -1.26169
C         20.84315        10.36529        -0.26055
C         19.60355         9.74586        -0.75032
C         20.80269        11.71765         0.18024
C         19.48500        12.37743         0.52751
C         20.68284        14.58114         0.60847
C         19.52073        13.88960         0.50661
C         20.71078        16.06823         0.30215
C         19.47087        16.80373         0.76599
C         20.77214        19.00257         0.40593
C         19.48225        18.28171         0.57035
C         20.78612        20.37613         0.32268
C         19.56932        21.12172        -0.04226
C         20.77467        23.31951         0.13430
C         19.58479        22.59893         0.01685
C         20.77212        24.76635         0.11366
C         19.55236        25.49619        -0.06091
C         20.72652        27.60012         0.58663
C         19.50465        26.89325         0.05914
C         20.73695        29.03352         0.15675
C         19.61524        29.66460        -0.32561
C         20.77853        31.87066        -0.50595
C         19.76802        31.01594        -0.83271
C         20.65899        33.35132        -0.21452
C         19.38921        34.10465        -0.61122
C         20.67093        36.06036         0.09367
C         19.41663        35.50979        -0.28431
C         20.70730        38.15909        -0.33018
C         19.45872        38.49326        -0.81854
C         23.33607         6.00503        -0.66364
C         22.11254         5.39342        -0.97440
C         23.25827         7.39863        -0.10248
C         22.24257         8.30220        -0.78009
C         23.24669        10.29510         0.35041
C         22.06654         9.66573        -0.16732
C         23.21019        11.69735         0.61457
C         21.99826        12.39417         0.50011
C         23.16015        14.55269         1.21654
C         22.01991        13.90419         0.44099
C         23.17328        16.12262         1.07690
C         21.97272        16.82518         0.64947
C         23.23885        18.93739         0.57688
C         22.00979        18.23788         0.53457
C         23.27523        20.38193         0.82158
C         21.98265        21.16203         0.65946
C         23.22782        23.30428         0.44694
C         22.02947        22.62210         0.37991
C         23.25645        24.74288         0.29585
C         22.01626        25.46779         0.23131
C         23.23363        27.60769         0.19663
C         22.02737        26.89309         0.27360
C         23.27466        29.04747         0.19463
C         22.00067        29.77397         0.30333
C         23.25522        31.87016        -0.46553
C         22.00433        31.23850         0.02260
C         23.21541        33.38541        -0.69232
C         21.95313        34.11355        -0.46488
C         23.18597        36.29943        -0.11325
C         21.94096        35.46769        -0.20523
C         23.20827        37.77218        -0.43286
C         22.04037        38.53466        -0.69468
C         25.84196         6.20386        -0.77749
C         24.57974         5.39350        -0.80341
C         25.80924         7.41945         0.14132
C         24.50353         8.09461         0.36181
C         25.67232        10.22379         0.99198
C         24.45146         9.55677         0.55810
C         25.73557        11.70835         1.04943
C         24.39580        12.37278         1.27946
C         25.71972        14.56555         0.90073
C         24.42191        13.86705         1.16563
C         25.74069        16.05801         1.09962
C         24.48648        16.73246         0.73659
C         25.78982        18.94524         0.46726
C         24.48990        18.21193         0.35863
C         25.71218        20.41970         0.56455
C         24.55090        21.11165         0.66331
C         25.70159        23.27476         0.03539
C         24.54050        22.62647         0.83122
C         25.74984        24.76069         0.32145
C         24.48348        25.44830         0.31121
C         25.69397        27.57662         0.16671
C         24.48829        26.88755         0.21302
C         25.71028        29.00339        -0.15683
C         24.46203        29.76117         0.02050
C         25.73153        31.89066        -0.31914
C         24.52663        31.17863        -0.21502
C         25.70641        33.34135        -0.49259
C         24.49294        34.07107        -0.56928
C         25.68607        36.26546        -0.73053
C         24.47840        35.52614        -0.29040
C         25.73200        37.73103        -0.54116
C         24.47322        38.40381        -0.52221
C         28.28505         6.00483        -0.30300
C         27.11299         5.40620        -0.64266
C         28.32460         7.38556         0.31738
C         26.97645         8.06912         0.38641
C         28.16289        10.37090         0.47495
C         26.98500         9.46242         0.90119
C         28.23045        11.61813         1.37978
C         26.91463        12.36731         1.22262
C         28.21476        14.59844         1.54142
C         26.92522        13.83554         1.45176
C         28.18303        16.07007         1.35678
C         26.96433        16.74994         1.19179
C         28.11136        19.00438         1.74917
C         27.02082        18.23196         0.96477
C         28.10522        20.48716         1.33292
C         27.02884        21.09691         0.52934
C         28.20232        23.35895         0.77158
C         27.03532        22.58291         0.31623
C         28.20625        24.77169         0.68037
C         26.94259        25.44425         0.47677
C         28.23432        27.59445         0.37845
C         26.92833        26.92838         0.71174
C         28.33543        29.00145        -0.17497
C         27.01298        29.74464        -0.29552
C         28.16809        31.90752         0.18221
C         27.00032        31.21666        -0.12853
C         28.12123        33.37936         0.13831
C         26.93424        34.03903        -0.41248
C         28.22992        36.21735        -0.60693
C         26.99370        35.46146        -0.75499
C         28.22557        37.62163        -0.51396
C         26.97735        38.35690        -0.50490
C         30.73604         6.08886        -0.52391
C         29.57625         5.35784        -0.44514
C         30.70373         7.57706        -0.54175
C         29.36096         8.28984        -0.38846
C         30.69401        10.22715         0.87179
C         29.43835         9.61859         0.31863
C         30.62542        11.74705         0.79027
C         29.48040        12.43823         1.08083
C         30.64001        14.62803         1.04036
C         29.48379        13.88954         1.24238
C         30.71320        16.06121         1.23717
C         29.46375        16.80346         1.69598
C         30.67884        18.95124         1.35258
C         29.46995        18.30855         1.45929
C         30.93530        20.33534         1.72066
C         29.09567        21.33537         1.73304
C         30.61352        23.33089         1.31887
C         29.32505        22.68171         1.26182
C         30.63070        24.75423         1.14600
C         29.40643        25.47584         0.91805
C         30.62939        27.65780         0.82457
C         29.40853        26.91804         0.68418
C         30.58617        29.06766         0.81525
C         29.43156        29.80118         0.48967
C         30.62196        31.97579         0.71216
C         29.42428        31.22970         0.48960
C         30.69779        33.35579         0.32870
C         29.43595        34.12458         0.13768
C         30.71781        36.19301        -0.34615
C         29.49215        35.41413        -0.67802
C         30.69964        37.58599        -0.22412
C         29.47105        38.29630        -0.33682
C         33.20717         6.12932        -0.47342
C         32.03078         5.44887        -0.60600
C         33.25980         7.55225        -0.23602
C         31.98559         8.31044        -0.29424
C         33.16191        10.32162         0.46569
C         31.98141         9.66642         0.29321
C         33.16319        11.75383         0.97615
C         31.86501        12.44400         0.30321
C         33.15386        14.68454         0.51309
C         31.84345        13.95941         0.48086
C         33.20169        16.10599         0.92800
C         31.91337        16.74260         1.13685
C         33.15237        18.97667         0.71781
C         31.89477        18.20907         0.96224
C         33.11150        20.50927         0.55455
C         31.93208        21.15092         1.24858
C         33.06807        23.33231         1.07866
C         31.86624        22.61502         1.31620
C         33.09908        24.77090         1.11750
C         31.87446        25.46025         1.18284
C         33.11892        27.66692         1.28591
C         31.79327        26.94211         1.48287
C         33.03504        29.07422         0.85693
C         31.80262        29.80760         1.19344
C         33.29785        31.97446         1.16857
C         31.86612        31.30573         1.17102
C         33.22621        33.44358         0.68010
C         31.91121        33.99311         0.17405
C         33.24214        36.17973         0.04774
C         31.95626        35.42045        -0.23863
C         33.10808        37.61845         0.33836
C         31.93302        38.27131         0.14825
C         34.43254         8.24095        -0.06331
C         35.62915        10.35997         0.27921
C         34.44789         9.67043         0.19604
C         35.71611        11.79528         0.75067
C         34.40449        12.53836         0.53830
C         35.68254        14.61807         0.71618
C         34.40027        13.88980         0.51260
C         35.68480        16.08951         0.94679
C         34.38650        16.80882         0.95211
C         35.68880        19.01057         0.79317
C         34.41930        18.29523         1.23439
C         35.70758        20.50681         1.08419
C         34.38586        21.23024         0.91727
C         35.46914        23.35891         0.31740
C         34.32106        22.60079         0.92177
C         35.53924        24.82712         0.64319
C         34.38703        25.48524         0.99908
C         35.70968        27.78492         0.73497
C         34.43110        26.97309         1.14766
C         35.40731        29.21393         0.16008
C         33.97225        29.66530         0.07510
C         35.12652        31.78991        -0.78640
C         34.35271        31.11256         0.32891
C         35.23213        33.23675        -0.84981
C         34.35856        33.97588        -0.13754
C         34.29679        35.26029         0.64642
C         36.85666        12.56165         0.11846
C         37.84865        14.76842        -0.49765
C         36.86846        13.93857         0.12837
C         37.83327        16.17321        -0.38133
C         37.01006        16.84413         0.73536
C         38.15165        19.05337         0.25423
C         36.83275        18.34362         0.51417
C         38.02676        20.54230         0.02455
C         36.84535        21.24885         0.42081
C         38.02052        23.40172         0.01364
C         36.77574        22.61998         0.31128
C         37.76581        24.80483        -0.46066
C         36.68598        25.54189         0.07929
C         37.48085        27.52485        -1.10022
C         36.60537        26.93720        -0.15601
C         37.24763        28.88409        -1.53625
C         36.23755        29.64264        -1.02228
C         36.02933        31.00345        -1.45331
C         38.69495        16.97219        -1.13736
C         39.87124        19.06523        -1.56314
C         38.89875        18.36810        -0.89354
C         40.28548        20.43417        -1.07831
C         39.07781        21.22344        -0.61286
C         39.94563        23.29740        -1.63639
C         39.01637        22.61801        -0.79595
C         39.79573        24.65957        -1.87587
C         38.70943        25.42129        -1.31906
C         38.50794        26.76829        -1.68721
C         41.13079        21.19100        -2.06764
C         40.98318        22.50998        -2.29550
O         10.24940        29.44155        -1.29276
O         24.45796        17.18612        -0.67422
O         21.99405        30.79954         1.41813
O         24.00003        35.91709         1.04654
O         17.09530         8.55861         0.27888
O         13.54248         7.98516        -2.28977
O         28.64379        34.13360         1.33960
O          8.90388        17.55146        -1.59410
O         32.46335        18.39921        -0.42889
O         26.86216        18.53597        -0.45041
O         30.04493        20.87499         2.65242
O         31.70445        30.55580         2.44075
O         27.43983        14.18066         2.76581
O         20.68480        37.23659         0.78191
O         26.36766         9.61504         2.17809
O         16.22749        32.78761         1.76289
O         18.94951        20.65650        -1.32552
O         17.11270        21.94340         1.40851
O         23.51300         7.45338         1.30990
O          9.69153        26.28981         1.78791
O         26.30898        29.30665        -1.50952
O         27.89412        18.80534         3.11875
O         32.35316        14.60387        -0.74609
O         17.95030        15.22437         1.87574
O         13.97455        27.22042         1.71084
O         18.29734        23.95635        -1.59021
O         12.41366        12.52479         1.50165
O         31.41146         8.18995        -1.67819
O         13.87694        34.10542         1.87462
O         13.84930        31.44558         2.01233
O         22.41859        14.19111        -0.91093
O         33.15520        11.84586         2.34078
O         26.20960        35.79469        -1.97873
O         35.50139        30.42327         1.13710
O         19.55741        17.62237         1.94540
O         33.98764        27.46501         2.46782
O         18.72711        31.47344        -1.63733
O         20.54407         8.02612        -2.42329
O         27.41095        21.65593        -0.78180
O         33.62273        34.48443         1.72578
O         10.68643        15.15719        -1.84324
O         22.51272        20.83471         2.00389
O          6.35128        23.06062         1.79833
O         35.78864        15.13806         2.07724
O         32.92723        35.76883        -1.31118
O         23.11294        32.41369        -1.80563
O         22.98960        15.45311         2.35658
O         37.78099        16.74855         1.91152
O          9.19145        18.73087         1.77422
H          8.70186        19.24863         2.44772
O         33.02616        20.78782        -0.88245
H         32.56013        20.01441        -1.28665
O         13.23486        24.62882         1.93494
H         13.41365        25.53590         2.28950
O         10.71935        21.25460        -2.00867
H         10.44343        20.56865        -2.67023
O         13.39023        10.14532         1.12964
H         12.64726        11.60380         1.78787
O         36.47970        27.96116         1.93547
H         35.85724        28.27521         2.62985
O         13.06182        11.71599        -2.05962
H         13.40027        12.54960        -2.46209
O         24.13091        12.15067         2.71898
H         24.84966        12.57718         3.23431
O         25.86344        14.39613        -0.56257
H         25.05247        14.75009        -0.99689
O         16.76470        35.61088        -1.97891
H         17.57157        35.19921        -2.35788
O         28.83456         8.50862        -1.73747
H         29.63164         8.66142        -2.30407
O         15.99991        37.99885         1.57638
H         16.17248        38.95103         1.73527
O         14.73618        14.11415        -2.20187
H         14.67795        15.07004        -2.42075
O         12.00063        20.68625         1.33659
H         12.68147        21.17889         1.84185
O         35.86294        11.74576         2.19508
H         34.93490        11.72336         2.57033
O         33.76985        32.01753         2.50480
H         33.31019        31.30576         3.00886
O         31.47749        27.01901         2.90578
H         32.33826        27.00796         3.38610
O         13.34615        20.72102        -2.10354
H         12.43630        21.00204        -2.37798
O         41.11974        20.17952         0.09360
H         40.55206        19.69654         0.75198
O         11.59177         9.67339        -2.24163
H         12.28019         9.09050        -2.65119
O         25.92340         6.80979        -2.12451
H         26.78606         7.27919        -2.18687
O         20.58696        33.36485         1.26891
H         21.07818        32.59188         1.63271
O         18.26164         7.44569        -3.01605
H         19.15496         7.23165        -3.36707
O         22.92198         8.57122        -2.04595
H         22.22239         8.77837        -2.71022
O         28.33547        11.19554         2.76263
H         28.27164        12.00100         3.32284
O         27.78617        10.86384        -0.84943
H         28.02383        10.15628        -1.50149
O         24.76673        22.89675         2.23518
H         24.07720        22.41173         2.74178
O         25.38685        23.12672        -1.36360
H         26.02844        22.47148        -1.73274
O         34.34701        18.43781         2.69416
H         34.97051        17.78415         3.08325
O         28.83558        28.83827        -1.55039
H         28.03476        28.73704        -2.11926
O         20.67655        16.10961        -1.15576
H         21.37872        15.43523        -1.43293
O         38.99734        18.94302         1.42900
H         38.74640        18.05367         1.85711
O         35.11780        23.34533        -1.13261
H         34.57290        22.54034        -1.29932
O         35.99941        20.61049         2.51572
H         35.39088        19.97894         2.97383
O         29.46662        16.71810         3.15704
H         28.82525        17.43841         3.46716
O         12.27360        25.42520        -1.51435
H         11.46609        25.78503        -1.93811
O         15.85729         7.42774        -3.01721
H         14.93639         7.25536        -3.31761
O         20.62006        27.56446         2.05233
H         19.85545        28.12046         2.31317
O         38.67535        23.56852         1.33616
H         38.81197        22.67193         1.71431
O         10.81046        18.86831        -2.44125
H         10.19423        18.11945        -2.65469
O         28.80105         7.25177         1.67480
H         28.12818         6.77091         2.20002
O         20.89311         6.33849         0.84437
H         21.13023         5.48941         1.27267
O         30.71735         9.85214         2.28793
H         29.91979        10.25176         2.72125
O         29.62599        34.92613        -2.06486
H         29.72504        35.70677        -2.65043
O         26.79809        27.11831         2.18459
H         26.14544        26.46286         2.51422
O         13.14160        36.06177        -1.70899
H         12.43509        36.64561        -2.05898
O         31.97058        12.14614        -1.09349
H         32.25563        12.98380        -1.53889
O         19.26407        11.98926         1.92780
H         18.57366        12.57973         2.30001
H          5.04537        18.44804         0.63124
H          3.87114        20.46198         0.36896
H          3.54950        22.78381         0.02004
H          5.11219        25.15924        -0.53046
H          7.61482        14.20896         0.89042
H          6.29436        16.29627         0.75833
H          6.14724        27.31940         0.06893
H          7.31635        29.53277         0.08027
H          9.57089        10.05273        -0.12929
H          8.73433        12.06409         0.62476
H          8.61276        31.79454         0.34216
H          9.81369        33.91174         0.21916
H         12.50356         5.50574        -0.37947
H         11.95599         8.19022         0.75066
H         11.01299        36.05253         0.02455
H         12.31116        38.32966        -0.16451
H         14.63322         4.36959        -0.46998
H         14.39354        39.57742        -0.10625
H         17.08246         4.38840        -0.58982
H         16.98665        39.49689        -0.74147
H         19.49935         4.37298        -0.54489
H         19.36340        39.31561        -1.54254
H         22.08000         4.40644        -1.45783
H         22.18464        39.52758        -1.14900
H         24.63565         4.35199        -1.15524
H         24.48633        39.50142        -0.60490
H         27.12897         4.39260        -1.07425
H         27.02461        39.45056        -0.39613
H         29.61532         4.26083        -0.52777
H         29.47535        39.38999        -0.22104
H         34.15923         5.57923        -0.51477
H         32.04834         4.35621        -0.73453
H         33.98152        38.15518         0.73862
H         31.87220        39.34948         0.35875
H         35.39386         7.70494        -0.09247
H         36.57454         9.81196         0.13693
H         36.10204        33.68103        -1.35600
H         35.23685        35.75523         0.98364
H         37.65714        12.00511        -0.39574
H         38.67434        14.28831        -1.04873
H         37.87274        29.28563        -2.34795
H         36.68811        31.43040        -2.22392
H         39.26678        16.51030        -1.96055
H         40.48425        18.55751        -2.32599
H         40.49936        25.17006        -2.55079
H         39.18290        27.24329        -2.41407
H         41.93602        20.63303        -2.56902
H         41.64921        23.03058        -3.00024
