         621
 CSIRO Nanostructure Databank - Neutral Graphene Oxide Data Set
C          5.96120        31.49182         0.12846
C          5.93592        32.85147         0.07219
C          8.25341        27.27292         1.01091
C          8.25728        28.65894         1.09380
C          7.15487        29.41287         0.57058
C          8.09478        31.54270         1.45192
C          7.07659        30.77985         0.68609
C          8.01205        33.07224         1.49427
C          6.98523        33.70572         0.58877
C          7.86938        36.03079         0.55659
C          6.99480        34.99055         0.07721
C          8.47094        37.07104        -0.08077
C         10.65396        22.98472         1.19005
C         10.61979        24.36176         1.58239
C          9.40616        25.10546         1.36179
C         10.46473        27.20149         2.11384
C          9.34579        26.48405         1.48498
C         10.50143        28.66888         2.06915
C          9.39786        29.38239         1.64694
C         10.50148        31.52556         2.15290
C          9.37980        30.83609         1.75046
C         10.45987        32.98854         2.33270
C          9.28509        33.76384         1.87258
C         10.60983        35.87879         1.82536
C          9.38436        35.14130         1.90262
C         10.69039        37.17870         1.26559
C          9.59001        37.82760         0.50640
C         10.87361        39.95081         0.27802
C          9.63971        39.16630         0.20070
C         10.89941        41.40813         0.28253
C         13.20402        19.26916        -0.70511
C         13.14571        20.51994        -0.03745
C         11.91664        21.05006         0.36979
C         13.11037        22.86569         1.56772
C         11.84845        22.28465         1.06265
C         13.09978        24.32765         1.98044
C         11.81174        25.02806         1.91616
C         13.03948        27.18915         2.39823
C         11.77616        26.43095         2.31345
C         12.97894        28.58670         2.61001
C         11.69402        29.32807         2.63046
C         13.02221        31.59044         2.68530
C         11.71732        30.84731         2.67565
C         13.03283        32.96047         2.59182
C         11.74524        33.72540         2.66242
C         13.07881        35.91146         2.35378
C         11.74936        35.27476         2.62617
C         13.06501        37.30836         2.06745
C         11.91565        37.89618         1.43009
C         13.23505        40.10774         1.28537
C         12.10807        39.21719         0.84428
C         13.40615        41.36977         0.43909
C         12.08975        42.12583         0.34269
C         13.34587        44.25747         0.23678
C         12.12960        43.53389         0.22337
C         13.38079        45.63325        -0.06574
C         15.71657        15.32162        -2.05539
C         15.65555        16.71321        -1.92164
C         14.45582        17.36257        -1.55304
C         15.59692        19.59859        -1.28435
C         14.39576        18.72340        -1.20468
C         15.61975        20.82030        -0.40536
C         14.38076        21.22614         0.28712
C         15.66574        22.95369         1.63294
C         14.39130        22.33400         1.08550
C         15.60242        24.46722         1.79402
C         14.37453        25.09472         1.94891
C         15.46832        27.19868         2.59686
C         14.28331        26.51445         2.24738
C         15.28146        28.47309         3.14323
C         14.15205        29.28903         2.93749
C         15.62943        31.53467         2.72898
C         14.28797        30.77923         2.72623
C         15.62118        33.04787         2.61640
C         14.29879        33.74138         2.48279
C         15.45031        35.94910         2.92233
C         14.27088        35.22035         2.62878
C         15.23123        37.33430         3.03195
C         14.23814        38.05851         2.35828
C         15.72196        40.23789         1.91487
C         14.38714        39.52860         2.07559
C         15.74272        41.51124         1.33454
C         14.55967        42.21865         0.91029
C         15.81874        44.33185         0.57616
C         14.58307        43.57186         0.58713
C         15.83771        45.70422         0.20782
C         14.58526        46.37406        -0.12404
C         15.79462        48.43371        -0.76444
C         14.59644        47.70404        -0.59404
C         15.83199        49.73096        -1.29029
C         18.17417        11.07150        -2.55976
C         18.18687        12.44982        -2.33858
C         16.95919        13.18658        -2.32397
C         18.19206        15.28431        -2.21852
C         16.93427        14.57926        -2.20886
C         18.15794        16.76465        -2.26231
C         16.87888        17.53071        -2.13517
C         18.09417        19.46966        -0.90164
C         16.92796        19.04762        -1.80370
C         18.11964        20.66449        -0.21704
C         16.90048        21.39431         0.08652
C         18.17613        23.15870         1.28402
C         16.92050        22.49147         0.91812
C         18.09411        24.52604         1.80548
C         16.87034        25.16816         1.96214
C         18.12274        27.43624         2.27551
C         16.81610        26.64663         2.22166
C         18.25396        28.85720         2.71217
C         17.18373        29.60726         3.21277
C         18.16992        31.72281         2.71728
C         16.98955        30.97297         2.99342
C         18.15818        33.14215         2.80625
C         16.85686        33.81073         3.06477
C         18.12482        36.05425         3.04507
C         16.80077        35.32352         3.21503
C         18.20333        37.51904         2.89334
C         17.10227        38.39351         2.97708
C         18.24606        40.19173         1.93777
C         16.99960        39.61339         2.26101
C         18.30955        41.47067         1.23855
C         17.01292        42.18518         0.96667
C         18.27092        44.31833         0.54976
C         17.04545        43.65184         0.74735
C         18.30474        45.70646         0.24159
C         17.06919        46.38786         0.09233
C         18.35174        48.47487        -0.64314
C         17.05706        47.81816        -0.27916
C         18.30804        49.54937        -1.70106
C         17.05130        50.39077        -1.64342
C         18.30472        52.27115        -2.65977
C         17.08765        51.67727        -2.14652
C         18.29082        53.42418        -3.40174
C         20.69754         6.86769        -3.57376
C         20.63262         8.21264        -3.09821
C         19.44303         8.85622        -2.80662
C         20.67860        11.04245        -2.13527
C         19.36836        10.26449        -2.35455
C         20.68119        12.50737        -2.24360
C         19.45035        13.17534        -2.22782
C         20.67575        15.35351        -2.47333
C         19.40446        14.61459        -2.25569
C         20.67852        16.87361        -2.34903
C         19.40706        17.42818        -1.79925
C         20.60846        19.54593        -1.07903
C         19.36354        18.71951        -1.06787
C         20.69018        20.60828        -0.03746
C         19.36561        21.17196         0.43426
C         20.73421        23.00758         1.57227
C         19.38187        22.52760         1.02923
C         20.70909        24.50126         1.93617
C         19.38139        25.23799         2.09801
C         20.62855        27.41539         2.11267
C         19.41608        26.71619         2.13877
C         20.66037        28.87290         2.25006
C         19.43900        29.58574         2.46487
C         20.61638        31.75767         2.55340
C         19.40571        31.01398         2.59078
C         20.60538        33.17909         2.59951
C         19.36651        33.87625         2.74902
C         20.59426        36.05022         2.62534
C         19.30096        35.33068         2.84116
C         20.66474        37.49257         2.99354
C         19.42338        38.20729         2.69359
C         20.72009        40.27986         2.24993
C         19.45590        39.56773         2.33643
C         20.69694        41.66406         1.81486
C         19.55436        42.24179         1.32859
C         20.81955        44.32970         0.60396
C         19.54157        43.56794         0.66893
C         20.80168        45.76319         0.27625
C         19.58276        46.39805         0.02586
C         20.82717        48.35967        -0.82943
C         19.62132        47.72860        -0.50579
C         20.81486        49.70709        -1.40446
C         19.59314        50.33562        -1.74814
C         20.80305        52.26835        -2.58980
C         19.58257        51.60388        -2.35057
C         20.79750        53.57208        -3.34902
C         19.51807        53.82201        -4.18870
C         20.80732        55.81895        -4.99272
C         19.60082        55.27833        -4.60264
C         20.96041        57.20696        -5.29588
C         23.16788         4.33486        -4.86510
C         21.95646         4.91004        -4.40765
C         23.19777         6.90330        -3.64913
C         21.90656         6.22109        -3.90219
C         23.19038         8.38464        -3.51147
C         21.89021         9.01178        -3.12883
C         23.24694        11.04974        -2.40614
C         21.95974        10.30029        -2.38119
C         23.17017        12.52236        -2.30887
C         21.96324        13.20990        -2.27508
C         23.13387        15.41340        -2.21809
C         21.96649        14.66716        -2.30297
C         23.14496        16.86867        -2.12890
C         21.92962        17.56945        -2.06355
C         23.13359        19.64262        -1.24322
C         21.88162        18.97066        -1.61750
C         23.14841        20.84651        -0.54724
C         21.94130        21.39857         0.05267
C         23.18207        23.34780         0.84141
C         21.94855        22.60140         0.73097
C         23.17521        24.65810         1.35710
C         21.93415        25.31381         1.73074
C         23.12972        27.46824         1.74560
C         21.87422        26.69800         1.88627
C         23.15286        28.94860         2.12766
C         21.85757        29.61910         2.36879
C         23.07165        31.73087         2.93031
C         21.84321        31.01703         2.54746
C         23.15895        33.18169         2.77565
C         21.91879        33.84877         2.20679
C         23.17138        36.08477         2.68882
C         21.90123        35.35957         2.38203
C         23.21286        37.46035         2.75173
C         21.95977        38.23345         2.90634
C         23.19897        40.35740         2.41666
C         21.92938        39.66050         2.53913
C         23.21719        41.71347         2.12037
C         21.95393        42.43939         1.92268
C         23.30841        44.44490         0.99223
C         22.01054        43.81901         1.33933
C         23.27564        45.71587         0.32234
C         22.07123        46.39158         0.04508
C         23.31002        48.36133        -0.79414
C         22.08610        47.71527        -0.54599
C         23.31813        49.69544        -1.42355
C         22.03084        50.39727        -1.62348
C         23.29722        52.44986        -2.35692
C         22.01955        51.70281        -2.16036
C         23.34016        53.45979        -3.45440
C         22.04893        53.64114        -4.26375
C         23.32009        55.51584        -5.54798
C         22.02043        54.93953        -5.08366
C         23.37178        56.96474        -5.94299
C         22.18081        57.80225        -5.66456
C         23.58578        59.81567        -5.89579
C         22.31629        59.19827        -5.78467
C         24.37997         4.98673        -4.80687
C         25.67658         7.14312        -4.27197
C         24.50786         6.26396        -4.10867
C         25.69946         8.45249        -3.81051
C         24.48388         9.09821        -3.32403
C         25.69258        11.22276        -3.02798
C         24.48490        10.42139        -2.94712
C         25.68428        12.56336        -2.71327
C         24.45901        13.22322        -2.20402
C         25.67851        15.48407        -2.30741
C         24.43142        14.72597        -2.09296
C         25.62883        16.90810        -2.11431
C         24.37300        17.57677        -1.99433
C         25.61172        19.72407        -1.47255
C         24.33905        19.09272        -1.94901
C         25.63023        20.94370        -0.82199
C         24.40061        21.54441        -0.33101
C         25.68266        23.46209         0.55096
C         24.41876        22.77059         0.34915
C         25.69781        24.72981         1.21069
C         24.42739        25.37198         1.50923
C         25.62827        27.43157         2.18468
C         24.39723        26.72657         1.81031
C         25.66181        28.92429         2.22425
C         24.39994        29.58604         2.52330
C         25.64704        31.74002         2.92807
C         24.40292        30.95767         3.00889
C         25.63817        33.11165         2.94038
C         24.37333        33.83021         2.86040
C         25.71029        36.05069         3.08680
C         24.39397        35.30980         2.98383
C         25.71254        37.49970         2.77321
C         24.45461        38.20902         2.69105
C         25.67153        40.27522         2.10248
C         24.42986        39.59994         2.52692
C         25.77652        41.76047         2.11807
C         24.46074        42.50882         2.06788
C         25.77498        44.53137         1.31339
C         24.47447        43.82709         1.40798
C         25.77654        45.86219         0.62800
C         24.57848        46.24781        -0.21869
C         25.78279        48.38626        -0.65070
C         24.56581        47.72372        -0.53771
C         25.83878        49.88616        -0.78558
C         24.61441        50.44031        -1.51788
C         25.86992        52.34684        -2.49868
C         24.59878        51.94601        -1.74608
C         25.92496        53.25993        -3.55143
C         24.63972        53.73497        -4.14717
C         25.90808        55.51195        -5.43602
C         24.61815        54.81895        -5.20247
C         25.94897        56.83865        -5.80607
C         24.73457        57.63762        -6.06718
C         24.75816        59.09644        -5.93307
C         26.90414         9.23218        -3.84033
C         28.14892        11.31790        -3.40279
C         26.93160        10.57471        -3.46581
C         28.16712        12.69497        -3.12407
C         26.84314        13.42291        -3.16986
C         28.11580        15.48228        -2.46135
C         26.88015        14.81556        -2.58624
C         28.09703        16.87523        -2.00376
C         26.83903        17.61866        -2.07826
C         28.14141        19.82598        -1.81675
C         26.84054        19.08113        -1.96044
C         28.07865        21.12131        -1.12237
C         26.89601        21.64077        -0.61719
C         28.14062        23.61346         0.25391
C         26.89747        22.91454         0.07033
C         28.15287        24.86362         0.94008
C         26.92991        25.40247         1.41379
C         28.22842        27.48458         2.18454
C         26.95533        26.71692         2.07799
C         28.21297        28.77258         2.78007
C         26.99001        29.57884         2.62631
C         28.19642        31.73405         3.35210
C         26.90925        30.98003         3.13897
C         28.22807        33.17198         3.05053
C         26.93977        33.83438         2.60759
C         28.18589        35.97076         2.81940
C         26.97440        35.30736         2.89007
C         28.18545        37.44294         2.96488
C         26.92393        38.14391         2.63015
C         28.29374        40.16789         1.77779
C         26.96160        39.49432         2.06516
C         28.25568        41.67430         1.65816
C         27.04712        42.39955         1.66072
C         28.27147        44.44586         1.10568
C         27.05088        43.78379         1.38395
C         28.27731        45.82650         0.62586
C         27.07468        46.46183         0.24712
C         28.26122        48.46672        -0.51531
C         27.03874        47.75414        -0.33505
C         28.35397        49.69831        -1.29501
C         27.12792        50.41772        -1.42326
C         28.68882        51.94927        -3.35378
C         27.05006        51.70611        -1.97776
C         28.28542        52.77130        -4.41816
C         27.11455        53.59468        -4.35583
C         27.07675        54.72500        -5.19539
C         29.35612        13.42305        -2.97164
C         30.59277        15.53532        -2.54951
C         29.37051        14.81777        -2.66326
C         30.66327        16.90709        -2.22608
C         29.41445        17.61368        -1.86206
C         30.62299        19.74226        -1.69534
C         29.42747        19.08889        -1.82567
C         30.64244        21.20179        -1.45518
C         29.32285        21.88888        -1.07847
C         30.59480        23.77372        -0.08454
C         29.36287        23.09971        -0.26213
C         30.59307        25.03078         0.56382
C         29.39849        25.57544         1.10663
C         30.71626        27.39423         2.22523
C         29.41450        26.83094         1.80497
C         30.76697        28.71708         2.95076
C         29.46432        29.43197         3.23663
C         30.72556        31.74569         3.13339
C         29.48734        30.96783         3.37421
C         30.71983        33.12626         2.99109
C         29.44322        33.84983         2.91649
C         30.67316        36.00674         2.51090
C         29.44798        35.28069         2.74124
C         30.66445        37.41855         2.40650
C         29.49239        38.18680         2.84943
C         30.63175        40.34725         2.57563
C         29.46112        39.65126         2.58995
C         30.76183        41.58552         1.72713
C         29.49020        42.33744         1.45553
C         30.76871        44.48676         1.24509
C         29.49242        43.73530         1.25248
C         30.80525        45.93704         0.84798
C         29.49313        46.54810         0.47545
C         31.17181        48.33039        -1.08580
C         29.40816        47.88192         0.05972
C         30.67001        49.05758        -2.20404
C         29.51805        49.89744        -2.18232
C         29.44124        50.77642        -3.32173
C         31.86216        17.63595        -2.13949
C         33.07764        19.71465        -1.55824
C         31.88488        19.01643        -1.77803
C         33.10951        21.08407        -1.12986
C         31.88202        21.82118        -0.98013
C         33.10121        23.76537        -0.15731
C         31.86106        23.12916        -0.45713
C         33.12774        25.10832         0.32083
C         31.83329        25.88428         0.45702
C         33.19223        27.69240         1.54714
C         31.96054        26.86532         1.59627
C         33.12075        29.14562         1.92677
C         32.03093        29.52789         2.93554
C         33.28648        31.79582         3.21990
C         31.99203        31.00541         3.28636
C         33.19753        33.20780         2.81858
C         31.96864        33.85902         2.75511
C         33.13041        35.98055         2.19757
C         31.92321        35.27950         2.41658
C         33.12374        37.41033         1.82755
C         31.79788        38.16749         1.82913
C         33.17557        40.27765         2.25645
C         31.82286        39.69244         1.90802
C         33.22344        41.77112         2.34209
C         31.97282        42.45398         1.92143
C         33.29415        44.37363         1.08816
C         32.02104        43.71120         1.39320
C         33.29725        45.59518         0.41086
C         32.14556        46.57042         0.36927
C         32.01837        47.25028        -0.98596
C         34.32254        21.72939        -0.86169
C         35.56799        23.72595        -0.15570
C         34.35631        23.07843        -0.39190
C         35.64862        25.05408         0.53523
C         34.32236        25.76719         0.57122
C         35.52359        28.03709         0.69061
C         34.32130        27.15669         0.98511
C         35.69161        29.07263         1.79061
C         34.47692        29.64619         2.36969
C         35.86123        31.76144         2.90150
C         34.56226        31.01420         2.98955
C         35.76665        33.24916         2.72673
C         34.44209        33.83766         2.24018
C         35.60640        36.05388         2.07165
C         34.39606        35.34444         2.24641
C         35.64491        37.44548         1.71632
C         34.40758        38.16044         1.81095
C         35.57845        40.29723         1.49938
C         34.40270        39.54871         1.87240
C         35.64390        41.68733         1.65483
C         34.56090        42.51377         2.29138
C         34.50113        43.74415         1.44294
C         36.75892        25.94977         0.03140
C         37.87288        28.14472        -0.28587
C         36.75768        27.28707         0.20093
C         38.43288        29.03008         0.57515
C         36.91021        29.68515         2.10796
C         38.35449        31.76302         2.17769
C         37.07423        31.04343         2.46027
C         38.33877        33.32286         2.30049
C         37.00900        33.99370         2.39539
C         38.46443        36.35191         1.21361
C         36.85218        35.35686         2.32407
C         37.95153        37.52096         0.60432
C         36.78757        38.16386         1.15359
C         36.67587        39.55653         0.98084
C         39.37336        30.11997         0.42564
C         40.60826        32.05106         1.05092
C         39.41794        31.22296         1.24902
C         40.68777        33.36613         1.29685
C         39.55344        34.20775         1.81293
C         39.24320        35.29322         0.80060
O         20.10842        20.17051         1.22123
O         38.04875        28.90893         1.92923
O         10.85555        26.68489         3.42917
O         28.91214        37.86574         4.17080
O         16.08828        38.06081         3.84803
O         34.61966        29.82863         3.81804
O         29.51353        30.07323         4.53413
O         24.97088        35.68940         4.30047
O         29.92489        22.02718        -2.42704
O         15.07989        30.95617         1.48921
O         21.32037        37.90213         4.22430
O         24.03850         6.23220        -2.68847
O          7.48197        32.25152         2.58270
O         30.82293        45.59070         2.26575
O         38.81212        32.48636         3.37962
O         24.18300        49.69326        -2.67194
O         30.54190        48.69188         0.13028
O         35.89682        32.69667         4.05826
O         11.89163        39.29170        -0.60129
O         22.80194        10.30804        -1.18842
O         31.36543        40.51451         0.69094
O         28.76320        17.05638        -0.66426
O         11.46004        30.05795         3.88393
O         32.68973        31.42535         4.49749
O         24.58802        53.41268        -5.58270
O         26.52244        29.55201         1.20742
O         17.75029        48.75022         0.65343
O         20.59097        16.23982        -3.65291
O         21.00679        19.90649        -2.42264
O         22.47908        54.72369        -6.45512
O         27.36095        31.28389         4.48826
O         19.94969        10.49606        -1.00382
O         37.94615        36.18957         2.52002
O         25.66677        45.80616         2.07445
O         21.80388        43.65057         2.77732
O         23.59496        31.21901         4.20476
O         19.46114        17.45834        -0.31907
O         21.14367        35.94026         1.24946
O         32.33753        37.63266         0.58750
O         31.55126        26.36285         2.89304
O         20.11441        24.67565         3.26629
O         15.13920        33.44239         1.29567
O         10.86717        33.28183         3.74453
O         23.24504        53.91875        -2.07281
O         22.37627         9.09136        -4.52326
O         20.39002        43.52728        -0.55480
O         26.13061        39.65728         0.84521
O         17.31390        27.36295         1.01091
O         16.76179        34.43192         4.38595
O         23.96315        57.17288        -7.25096
O         25.25770        42.39301         3.31622
O          8.19888        35.87282         1.91268
O         15.36303        20.92045        -1.85693
O         17.50043        17.28984        -3.45504
O         24.59699        13.88250        -0.88226
O         13.11150        23.23254         2.99019
O         23.17052        28.48894         0.68701
O         27.45465        19.78100        -3.12410
O         33.13735        40.94887         3.56490
O         31.73330        28.66000         4.04352
O         16.25309        28.95417         4.00059
O         13.32558        40.33993         2.71345
O         17.71827        41.45443        -0.10849
O         26.23352        26.78515         3.36051
O         28.23647        52.41667        -2.08857
O         25.82125        50.36743         0.58237
H         25.67660        51.34304         0.56438
O         18.24521        48.80859        -2.96423
H         18.24834        49.46151        -3.69637
O         31.67259        26.71007        -0.74600
H         31.61500        26.10639        -1.51734
O         24.69565        52.56338        -0.43344
H         24.43794        53.50783        -0.54144
O         22.02067        52.52222        -5.17471
H         22.65592        52.74695        -5.90188
O         13.82320        40.99760        -0.90065
H         13.13654        40.38272        -1.26128
O         34.45363        33.44974         0.80494
H         33.72410        33.93503         0.36176
O         32.51067        47.56367         1.36021
H         32.25579        47.19673         2.23621
O         15.79268        22.42686         2.99392
H         14.93522        22.62217         3.44563
O         11.45998        35.71530         3.99426
H         10.87054        35.02994         4.39381
O         22.04523        33.58893         0.77342
H         21.51090        34.28138         0.31766
O         26.96971        33.73236         1.11847
H         27.75083        34.23673         0.80288
O         24.80637        45.53659        -1.48555
H         24.10686        45.81254        -2.11567
O         20.92735        22.28154         2.81268
H         20.41230        22.75712         3.50509
O         35.99433        24.74971         1.93980
H         35.25347        24.23467         2.32479
O         26.57567        13.66163        -4.60406
H         26.71331        12.81084        -5.07391
O         20.79712        54.67110        -2.41377
H         21.56870        54.55961        -1.80921
O         32.79079        29.88714         0.69345
H         32.16109        29.34717         0.16636
O         19.44349        53.00805        -5.38420
H         20.35990        52.74625        -5.65412
O         24.20492        19.50318        -3.36247
H         24.26625        20.48127        -3.40224
O         17.20508        19.74452        -3.03674
H         17.57305        19.08786        -3.67606
O         34.94117        42.88108         3.64747
H         34.57549        42.18704         4.24176
O         35.14661        28.86027        -0.46733
H         34.31068        29.34260        -0.24649
O         40.03622        34.84734         3.01530
H         39.99596        34.17861         3.73419
O         28.66196        39.68311         0.44336
H         27.84297        39.70347        -0.10315
H          5.14281        30.90798        -0.31702
H          5.09588        33.34906        -0.43462
H          7.38624        26.76417         0.56397
H          6.34456        28.86895         0.06176
H          6.28163        35.22946        -0.72791
H          8.17510        37.33352        -1.10712
H          9.72493        22.52212         0.82510
H          8.54135        24.56582         0.94772
H          8.76714        39.63616        -0.27821
H          9.93820        41.94421         0.27381
H         12.28349        18.66865        -0.76432
H         10.98352        20.54924         0.07258
H         11.18848        44.07970         0.05377
H         12.43917        46.14043        -0.32638
H         14.77947        14.75234        -1.95559
H         13.54834        16.75253        -1.42676
H         13.64454        48.16548        -0.89867
H         14.88159        50.25117        -1.48860
H         17.23879        10.57816        -2.86370
H         16.01246        12.62859        -2.37515
H         16.15538        52.25801        -2.22423
H         17.33276        53.92155        -3.62002
H         19.75757         6.30326        -3.67220
H         18.49469         8.30862        -2.92181
H         18.70405        55.91678        -4.57218
H         20.07859        57.85653        -5.18446
H         23.11862         3.35086        -5.35347
H         21.01849         4.35275        -4.54246
H         23.63312        60.91358        -5.86280
H         21.42529        59.83066        -5.66336
H         25.25974         4.56904        -5.31749
H         26.58427         6.71886        -4.72783
H         26.92369        57.34237        -5.88969
H         25.72909        59.60727        -5.86278
H         27.83651         8.74374        -4.16092
H         29.10133        10.78189        -3.53459
H         28.86792        52.78371        -5.35104
H         28.02238        55.06141        -5.64526
H         30.31800        12.89471        -3.05943
H         31.53073        14.99476        -2.74697
H         31.27893        49.07550        -3.12155
H         30.05219        50.52148        -4.20062
H         32.81871        17.11957        -2.30974
H         34.03539        19.18388        -1.66460
H         34.27549        46.01887         0.13269
H         32.55104        46.84928        -1.85900
H         35.27040        21.19056        -1.00561
H         36.50795        23.17966        -0.32831
H         36.57779        42.20059         1.38077
H         35.44994        44.24858         1.20698
H         37.64698        25.45824        -0.39551
H         38.16785        28.10312        -1.34461
H         38.48933        38.01782        -0.21643
H         37.52689        40.10577         0.55202
H         40.17138        30.02044        -0.32825
H         41.48795        31.53459         0.63616
H         41.63673        33.89472         1.12382
H         39.68755        35.25415        -0.20326
