         424
 CSIRO Nanostructure Databank - Neutral Graphene Oxide Data Set
C          1.73525         2.07616         2.69122
C          1.75354         3.48113         2.78046
C          2.83529         1.38017         2.22908
C          2.87500         4.22276         2.38353
C          1.83730         6.41344         2.98097
C          1.89746         7.81096         3.09219
C          2.92459         5.67706         2.50195
C          3.03168         8.52851         2.72702
C          1.82133        10.69421         2.28257
C          1.73060        12.06884         2.23556
C          2.98922        10.03710         2.93247
C          2.89894        12.87531         2.28424
C          1.70103        15.09583         2.56864
C          1.69318        16.46481         2.29901
C          2.87994        14.32150         2.27668
C          2.87836        17.16607         2.00713
C          2.91250        18.52317         1.56644
C          4.00407         2.08113         1.81186
C          4.00987         3.51937         1.86255
C          5.15258         1.38636         1.39016
C          5.15350         4.23309         1.42229
C          4.12618         6.38076         2.13677
C          4.18755         7.82700         2.25970
C          5.20272         5.65115         1.58942
C          5.33753         8.54856         1.83242
C          4.38245        10.77054         2.60653
C          4.16456        12.19019         2.09275
C          5.33398         9.97125         1.73004
C          5.17408        12.83990         1.43999
C          4.05435        15.00185         1.93948
C          4.18537        16.45314         2.27527
C          5.07461        14.30417         1.11010
C          5.38343        17.15141         1.68145
C          4.07791        19.22822         1.44252
C          5.40452        18.64650         1.89433
C          6.31902         2.07357         0.98126
C          6.31027         3.51374         0.94467
C          7.49105         1.37648         0.59962
C          7.44930         4.19378         0.46293
C          6.46564         6.32933         1.26700
C          6.53524         7.83273         1.38189
C          7.34473         5.67735         0.22583
C          7.59758         8.54597         0.64650
C          6.40413        10.64153         1.12925
C          6.30511        12.10250         0.77548
C          7.56843         9.95796         0.62949
C          7.63570        12.83035         0.97327
C          6.41227        15.00884         1.01277
C          6.41665        16.47390         1.08304
C          7.53280        14.31161         0.67508
C          7.63646        17.17260         0.68786
C          6.56752        19.32381         1.23927
C          7.67398        18.62127         0.77310
C          8.64558         2.06154         0.19535
C          8.61967         3.49530         0.10689
C          9.85066         1.37755        -0.16494
C          9.79744         4.20432        -0.31394
C          8.66302         6.38186         0.01564
C          8.68024         7.83160         0.07247
C          9.76495         5.65103        -0.38635
C          9.79468         8.56929        -0.42186
C          8.71611        10.68777         0.16518
C          8.76379        12.12726         0.25809
C          9.82560         9.96715        -0.34655
C          9.92449        12.83615        -0.04284
C          8.65140        15.00387        -0.06494
C          8.76205        16.47008         0.26588
C          9.96364        14.25994        -0.06216
C          9.98806        17.14221        -0.02513
C          8.86927        19.29425         0.39119
C         10.02776        18.58116         0.03826
C         10.98544         2.06649        -0.54008
C         10.98288         3.50070        -0.59921
C         12.21053         1.29527        -0.97646
C         12.22985         4.21718        -0.84027
C         10.94597         6.33932        -0.94604
C         10.95127         7.84458        -0.99218
C         12.23123         5.61725        -0.96127
C         12.25847         8.53810        -1.09551
C         10.97690        10.74313        -0.96325
C         11.20421        12.04434        -0.19343
C         12.27605         9.96647        -1.07200
C         12.36118        12.83827        -0.73922
C         11.14407        14.96101        -0.35273
C         11.15889        16.40685        -0.36732
C         12.35720        14.24452        -0.69185
C         12.36326        17.10118        -0.67883
C         11.24197        19.25146        -0.27125
C         12.38783        18.53668        -0.62811
C         13.50053         2.07608        -0.86772
C         13.46962         3.51115        -0.88673
C         14.70324         1.40607        -0.84629
C         14.69569         4.24363        -0.89568
C         13.44797         6.35253        -1.06141
C         13.43098         7.79407        -1.20229
C         14.67544         5.66164        -0.94247
C         14.68909         8.47503        -1.67766
C         13.48035        10.67399        -1.22324
C         13.51379        12.12474        -1.13379
C         14.70238         9.97129        -1.46463
C         14.71288        12.82881        -1.41911
C         13.53590        14.96489        -1.06588
C         13.54922        16.39315        -1.04817
C         14.72164        14.25531        -1.40465
C         14.73754        17.09689        -1.42656
C         13.61115        19.21493        -0.94474
C         14.73748        18.53813        -1.34262
C         15.95500         2.10741        -0.86207
C         15.94667         3.53295        -0.88337
C         17.17983         1.40856        -0.88802
C         17.18708         4.24333        -0.94448
C         15.93403         6.43180        -0.62910
C         15.96176         7.82870        -1.19326
C         17.20729         5.67197        -0.91842
C         17.13285         8.51497        -1.24362
C         15.90447        10.65725        -1.63100
C         15.92483        12.10547        -1.68177
C         17.15902         9.92694        -1.61076
C         17.11201        12.80044        -1.94065
C         15.91257        14.97337        -1.75258
C         15.89772        16.38357        -1.82607
C         17.13051        14.22941        -1.99069
C         17.07983        17.11973        -2.43707
C         15.95797        19.35374        -1.69195
C         17.21370        18.55152        -1.94816
C         18.41523         2.09085        -0.95972
C         18.41399         3.52976        -0.99964
C         19.65169         1.39836        -0.98410
C         19.64780         4.23932        -1.07141
C         18.40886         6.36768        -0.98193
C         18.40822         7.86570        -0.75394
C         19.64486         5.66507        -1.08301
C         19.65700         8.54630        -1.25975
C         18.36389        10.59624        -1.74118
C         18.37560        12.01937        -2.25511
C         19.62698         9.90772        -1.59221
C         19.58724        12.78671        -1.72145
C         18.34260        14.93802        -2.20034
C         18.38638        16.35094        -2.31121
C         19.59697        14.16847        -2.33101
C         19.60686        17.03771        -2.39759
C         18.39616        19.18680        -2.01257
C         19.59587        18.52602        -2.64217
C         20.88115         2.08612        -1.05062
C         20.88351         3.52443        -1.10349
C         22.12397         1.39742        -1.05717
C         22.11321         4.23112        -1.18607
C         20.88280         6.38028        -1.18569
C         20.87682         7.81019        -1.29671
C         22.10709         5.66275        -1.25646
C         22.10833         8.48949        -1.51815
C         20.87038        10.63505        -1.76253
C         20.88561        12.03840        -1.88678
C         22.10973         9.93122        -1.66783
C         22.10878        12.75204        -1.92331
C         20.90217        14.89683        -2.42742
C         20.87372        16.37072        -2.36500
C         22.15005        14.17783        -2.08391
C         22.07426        17.06767        -2.28411
C         20.89404        19.20797        -2.32185
C         22.08855        18.51982        -2.20258
C         23.34582         2.08475        -1.12625
C         23.35176         3.52309        -1.20905
C         24.59202         1.38941        -1.09886
C         24.58660         4.22885        -1.30440
C         23.34182         6.36423        -1.42623
C         23.31609         7.76525        -1.57017
C         24.59322         5.64361        -1.43871
C         24.57770         8.51096        -1.91181
C         23.31955        10.64523        -1.64185
C         23.34419        12.04946        -1.76927
C         24.57009         9.89133        -1.27989
C         24.58372        12.77645        -1.69216
C         23.35376        14.87059        -2.04088
C         23.35487        16.32885        -2.30991
C         24.59240        14.18726        -1.79324
C         24.63410        17.09560        -2.07229
C         23.32658        19.20786        -1.94357
C         24.55088        18.55306        -1.80326
C         25.81440         2.05989        -1.16986
C         25.83551         3.51171        -1.29817
C         27.04697         1.36059        -1.03030
C         27.04799         4.19694        -1.38262
C         25.83781         6.34652        -1.51469
C         25.84459         7.76484        -1.57900
C         27.08422         5.62487        -1.45532
C         27.03916         8.49048        -1.54870
C         25.84606        10.64926        -1.53242
C         25.82160        12.05666        -1.54380
C         27.06100         9.92920        -1.52534
C         27.04451        12.77667        -1.34718
C         25.82541        14.92092        -1.60216
C         25.83422        16.35704        -1.62703
C         27.02022        14.22214        -1.30570
C         26.98087        17.08576        -1.29342
C         25.73676        19.22679        -1.43317
C         26.95517        18.53776        -1.21451
C         28.28402         2.01593        -1.09284
C         28.33310         3.43896        -1.59959
C         29.48867         1.35295        -0.82983
C         29.55896         4.20084        -1.15195
C         28.32404         6.31114        -1.54075
C         28.29924         7.76387        -1.72126
C         29.57000         5.61825        -1.28183
C         29.63331         8.57638        -1.57626
C         28.29414        10.64034        -1.27695
C         28.22955        12.05848        -1.11679
C         29.51085         9.93549        -1.07959
C         29.38057        12.77825        -0.48245
C         28.22630        14.94705        -1.01033
C         28.20355        16.39657        -0.98749
C         29.41411        14.25196        -0.73860
C         29.33937        17.11897        -0.61450
C         28.13033        19.23168        -0.85548
C         29.33826        18.55582        -0.54833
C         30.72601         2.05304        -0.72131
C         30.73001         3.50557        -0.81073
C         31.92112         1.37771        -0.47020
C         31.93130         4.22157        -0.51419
C         30.78293         6.32756        -1.05511
C         30.93120         7.77149        -1.49294
C         31.95023         5.64649        -0.64355
C         32.03227         8.50923        -0.77825
C         30.67858        10.59844        -0.38239
C         30.71112        12.09614        -0.62233
C         31.97736         9.88501        -0.63986
C         31.87355        12.81905        -0.47955
C         30.63641        14.93745        -0.48483
C         30.54156        16.38364        -0.19447
C         31.84855        14.26011        -0.37454
C         31.77491        17.14361         0.16310
C         30.52220        19.26409        -0.19907
C         31.74737        18.62372         0.10388
C         33.13462         2.07660        -0.20047
C         33.11593         3.51485        -0.15441
C         34.33792         1.38382         0.02684
C         34.28485         4.22123         0.27139
C         33.16291         6.37363        -0.30237
C         33.19494         7.77346        -0.39667
C         34.29747         5.66869         0.25461
C         34.29443         8.54162         0.28813
C         33.20966        10.66942        -0.54560
C         33.10541        12.07815         0.00593
C         34.48333         9.94290        -0.23828
C         34.43420        12.83409        -0.23036
C         33.15813        15.03682        -0.39276
C         33.07500        16.44504         0.13597
C         34.35661        14.28656         0.14308
C         34.20754        17.12524         0.49218
C         32.92872        19.29029         0.43050
C         34.15485        18.58184         0.69508
C         35.51345         2.07013         0.42041
C         35.43822         3.48451         0.62286
C         36.73860         1.39187         0.66742
C         36.57362         4.14626         1.26065
C         35.45399         6.37824         0.65952
C         35.57578         7.78946         0.50073
C         36.57704         5.68790         1.29449
C         36.74030         8.47957         0.83556
C         35.62672        10.71017         0.29909
C         35.60365        12.08160         0.36845
C         36.90909         9.94043         0.47736
C         36.71487        12.81095         0.93907
C         35.44668        14.94637         0.66661
C         35.44321        16.40146         0.76980
C         36.64542        14.21536         1.07707
C         36.56458        17.07734         1.21672
C         35.30808        19.25551         1.02279
C         36.64926        18.57760         1.05085
C         37.91055         2.07142         1.06694
C         37.86620         3.47015         1.33999
C         39.15794         1.38677         1.25467
C         39.02732         4.19370         1.70092
C         37.85945         6.37829         1.46045
C         37.90324         7.78263         1.30384
C         39.02394         5.63627         1.79516
C         39.07361         8.50317         1.72095
C         37.93065        10.67242         1.30589
C         37.86176        12.07846         1.42086
C         39.04812         9.94490         1.79491
C         38.93943        12.79241         2.04629
C         37.73064        14.92980         1.66825
C         37.69446        16.35617         1.74945
C         38.87194        14.21653         2.17149
C         38.72494        17.05999         2.42319
C         37.59033        19.21474         2.02345
C         38.61167        18.49590         2.61759
C         40.27723         2.06641         1.66387
C         40.25412         3.48221         1.87399
C         41.42389         4.20076         2.21894
C         40.22861         6.33346         2.10689
C         40.21137         7.78301         2.17038
C         41.40779         5.58042         2.34224
C         41.31125         8.51899         2.69122
C         40.14353        10.64467         2.38215
C         40.08100        12.08130         2.51486
C         41.27029         9.89318         2.80942
C         41.13550        12.82172         3.11138
C         39.93294        14.92403         2.80403
C         39.83582        16.36002         2.98886
C         41.05846        14.19181         3.25781
C         40.78780        17.07832         3.73564
C         39.59153        19.16239         3.42576
C         40.65540        18.46254         3.95542
O         29.01539         8.32956        -2.88013
O         36.20050         4.89430         2.46958
O         10.63581         7.06431        -2.20680
O         34.15031        10.26722        -1.61314
O         20.24751        14.31428        -3.62239
O         30.88868        16.63374         1.23754
O         32.82168        11.90568         1.37972
O          5.06299        10.84336         3.81884
O          7.13524         6.91651         2.40608
O         24.22018        16.72213        -3.43881
O         34.63128        12.82747        -1.69232
H         35.57132        13.03966        -1.87146
O         12.30746         0.04722        -0.28304
H         12.41976         0.23493         0.67109
O          4.56359        14.37560        -0.28114
H          5.10211        13.71917        -0.79509
O          2.76143        10.29063         4.33536
H          3.68156        10.50542         4.68921
O          4.37452        16.51477         3.75274
H          3.57531        16.11041         4.15637
O         15.92812         6.62033         0.84632
H         15.87991         5.72828         1.25332
O         30.55877        10.46886         1.08918
H         31.39690        10.94086         1.43650
O         19.37360        18.67892        -4.10669
H         20.15102        18.28188        -4.55677
O          6.04022        12.15122        -0.67405
H          5.39453        11.44520        -0.88914
O          5.53831        18.93374         3.32891
H          5.12725        18.17510         3.81334
O         29.06609        12.69213         0.96888
H         29.47390        11.84516         1.30007
O          7.93571        12.72150         2.39138
H          8.85582        13.02083         2.54214
O          6.60735         5.84812        -1.03500
H          7.13971         5.43792        -1.74941
O         18.42209         8.04216         0.70343
H         17.58497         7.63258         1.03820
O         11.59101        11.64381         1.15960
H         11.88119        12.44510         1.64321
O         10.57646        11.09585        -2.31371
H         10.33923        10.27057        -2.78624
O         31.45108         7.66448        -2.85795
H         30.66571         7.65212        -3.45561
O         18.51715        11.94833        -3.69654
H         17.72976        11.49306        -4.06034
O         37.23561        18.80261        -0.29696
H         36.61880        18.40102        -0.94620
O         16.18405        20.36470        -0.70119
H         16.34309        19.92308         0.15773
O         28.46044         3.32272        -3.06653
H         29.28113         2.81598        -3.24570
O         24.58922         8.70296        -3.35570
H         24.64252         7.82217        -3.78188
O         33.41220        15.21602        -1.84292
H         33.72790        14.33358        -2.17188
O         37.48746         9.88970        -0.88954
H         37.55821        10.81227        -1.21470
O         24.52684         9.67539         0.16545
H         24.55689        10.55119         0.60463
O         14.68880         8.28126        -3.14528
H         13.82732         8.60762        -3.48298
O          8.22121        14.96387        -1.47864
H          7.35789        15.42715        -1.53418
O         16.80745        17.22536        -3.87013
H         17.57812        17.70688        -4.26016
O         19.39842        12.98909        -0.29336
H         19.36370        12.10774         0.13630
O         33.79117         8.76087         1.65525
H         33.70630         7.88681         2.09235
H          0.83621         1.53164         3.01276
H          0.86474         3.98687         3.18071
H          2.82464         0.28170         2.18619
H          0.90971         5.90801         3.28114
H          1.02663         8.35086         3.49002
H          0.96098        10.08530         1.95904
H          0.76722        12.54485         1.99583
H          0.76927        14.58488         2.84639
H          0.73601        17.00831         2.29833
H          1.95455        19.01235         1.32656
H          5.14779         0.28622         1.38888
H          4.05440        20.26673         1.08009
H          7.49742         0.27691         0.63536
H          6.61791        20.42196         1.30374
H          9.87544         0.27824        -0.13074
H          8.90026        20.39340         0.42881
H         12.07008         1.03498        -2.06532
H         11.27577        20.35019        -0.23052
H         14.70718         0.30604        -0.84022
H         13.64102        20.31222        -0.87256
H         17.17177         0.30867        -0.86616
H         15.73039        19.90299        -2.64824
H         19.65089         0.29882        -0.94556
H         18.45946        20.25399        -1.74778
H         22.12616         0.29862        -1.00221
H         20.89801        20.30811        -2.28840
H         24.58397         0.29346        -1.00072
H         23.28842        20.29890        -1.80446
H         27.02034         0.28577        -0.79253
H         25.70736        20.31716        -1.28702
H         29.47408         0.27352        -0.61359
H         28.10215        20.33031        -0.79719
H         31.92424         0.27811        -0.43901
H         30.48469        20.36427        -0.17934
H         34.35864         0.28859        -0.07096
H         32.94479        20.39041         0.46581
H         36.77952         0.30281         0.51737
H         35.28842        20.35210         1.11988
H         39.20203         0.30375         1.06963
H         37.52443        20.30178         2.18361
H         41.22578         1.52906         1.81029
H         42.36435         3.65075         2.36875
H         42.34593         6.09621         2.58818
H         42.20453         7.98836         3.04729
H         42.13740        10.40484         3.24791
H         42.03253        12.30548         3.47781
H         41.89941        14.71479         3.73219
H         41.64532        16.56110         4.18588
H         39.49584        20.24499         3.59142
H         41.41163        18.98383         4.55894
