         317
 CSIRO Nanostructure Databank - Neutral Graphene Oxide Data Set
C         30.32808        31.73569         1.18721
C         30.26105        32.96358         1.39294
C         30.39447        36.26838         0.96272
C         29.91777        37.36411         0.71989
C         29.72745        40.92267        -0.58961
C         30.21987        41.95700        -1.04156
C         32.78320        28.95981         1.01739
C         31.57425        29.43008         1.06778
C         32.69415        31.58753         1.32468
C         31.40660        30.79624         1.11498
C         32.62069        33.06581         0.87203
C         31.42902        33.87364         1.45602
C         32.77979        35.90308         0.57804
C         31.49813        35.34201         1.12779
C         32.76489        37.21723        -0.16090
C         29.40002        38.62551         0.31042
C         32.62456        40.36632        -0.39813
C         30.20438        39.68349        -0.09872
C         32.65817        41.75033        -1.19585
C         31.40241        42.70136        -1.15011
C         32.81229        44.53430        -0.92395
C         31.65037        44.03865        -1.22882
C         36.03354        26.37104         2.74042
C         35.31142        28.71659         0.60967
C         34.07511        29.37475         1.09379
C         35.38669        31.62095         1.38230
C         34.04285        30.84416         1.42851
C         35.13268        32.89657         0.50429
C         33.97436        33.77065         1.13544
C         35.28010        35.91767         0.60003
C         33.94187        35.19968         0.60720
C         35.21977        37.43180         0.23943
C         33.90321        38.17781         0.08419
C         35.12012        40.29296        -0.37399
C         33.88720        39.64646        -0.32417
C         35.22203        41.77507        -0.51389
C         33.99048        42.53945        -0.85826
C         35.07569        44.72253         0.25548
C         33.97347        44.01158        -0.48844
C         35.34719        46.09291        -0.38496
C         37.88086        27.31553         1.09279
C         36.84883        26.77989         1.88618
C         37.84568        28.69213         0.66472
C         36.61242        29.46017         0.78403
C         37.88987        31.63226         0.82975
C         36.59432        30.83653         0.87180
C         37.75529        32.95980         0.03904
C         36.42689        33.65555         0.08278
C         37.78398        35.90320         0.20444
C         36.39273        35.17593        -0.17331
C         37.75974        37.33732        -0.35187
C         36.44842        38.06457        -0.36612
C         37.69613        40.22725        -0.01787
C         36.43201        39.56970        -0.66333
C         37.72768        41.74309        -0.38765
C         36.40942        42.40994         0.22377
C         37.76510        44.68885         0.10432
C         36.45622        43.96452         0.24949
C         37.80448        46.16856        -0.17478
C         36.49831        46.61143        -0.30429
C         40.41792        24.49816         0.95260
C         39.45746        25.28664         1.18993
C         40.21797        27.19583         0.00915
C         39.07279        26.58827         0.86463
C         40.26547        28.69643         0.13394
C         39.08770        29.36583         0.39465
C         40.36702        31.53016         0.51705
C         39.03520        30.85313         0.14537
C         40.28084        33.05034         0.31509
C         39.07783        33.69059        -0.40700
C         40.30745        35.96589        -0.02083
C         39.03947        35.19369        -0.21493
C         40.32255        37.39565        -0.74002
C         39.02276        38.14293        -0.44789
C         40.28949        40.24901        -0.61750
C         38.98452        39.49859        -0.40210
C         40.29124        41.75133        -0.37589
C         39.01270        42.45894         0.07438
C         40.35776        44.64692        -0.11600
C         38.98612        43.94418        -0.43298
C         40.33040        46.14282        -0.49043
C         39.07335        46.85249         0.18726
C         40.37290        48.91445        -0.16684
C         39.31111        48.28643        -0.14367
C         42.92379        24.42909         0.04192
C         41.72898        25.07886         0.61129
C         42.68681        27.15298        -0.78257
C         41.60998        26.54376         0.14690
C         42.74733        28.68686        -0.64483
C         41.62398        29.38513         0.12337
C         42.88028        31.58288        -0.00358
C         41.54217        30.89434        -0.27182
C         42.86743        33.00310         0.59896
C         41.56703        33.79286         0.34154
C         42.82216        35.91380        -0.23999
C         41.55083        35.12688        -0.41707
C         42.78515        37.39034         0.10159
C         41.52853        38.13841        -0.23396
C         42.74201        40.28510        -0.18222
C         41.43884        39.59437         0.17999
C         42.77795        41.69406        -0.73748
C         41.46840        42.42755        -0.49513
C         42.89060        44.63848        -0.82364
C         41.47505        43.90444        -0.91929
C         42.83658        46.11964        -0.42857
C         41.66625        46.81731        -0.16780
C         42.98761        48.94729        -0.22092
C         41.68782        48.33422         0.28095
C         43.86264        25.10233        -0.41958
C         45.24965        27.19032        -0.77593
C         44.08928        26.49065        -0.67505
C         45.34335        28.69727        -0.38614
C         44.03685        29.45105        -0.63227
C         45.40282        31.53013         0.04098
C         44.03650        30.89613        -0.19908
C         45.37802        33.06119        -0.08541
C         44.10730        33.80127         0.18387
C         45.27710        35.94697        -0.29200
C         44.00724        35.24006        -0.21560
C         45.30163        37.42844        -0.38515
C         43.97881        38.16517        -0.48553
C         45.28925        40.34814        -0.21193
C         44.01123        39.57770         0.19322
C         45.16807        41.74492         0.35992
C         43.96761        42.49703        -0.13083
C         45.04279        44.64007         0.62648
C         43.94995        43.85307        -0.05526
C         45.40701        46.05187        -0.57214
C         44.12221        46.78739        -0.50483
C         43.97074        48.15803        -0.23854
C         47.73187        27.26863        -1.11248
C         46.60643        26.76828        -0.93626
C         47.96817        28.72979        -0.77544
C         46.53330        29.41292        -1.07861
C         47.69472        31.61631        -0.93649
C         46.54419        30.90309        -0.76049
C         47.78083        33.12513        -1.01196
C         46.39966        33.81963        -0.93915
C         47.72725        35.99110        -0.28846
C         46.44840        35.26596        -0.46544
C         47.69835        37.32654         0.48705
C         46.57266        38.15650        -0.09956
C         47.80665        40.28374         0.62951
C         46.51601        39.59575         0.30002
C         47.76551        41.77552         0.77853
C         46.41330        42.43593         0.84228
C         47.63705        44.68270         1.22071
C         46.33586        43.92348         1.01272
C         47.52599        46.06584         0.72842
C         46.55630        46.58245         0.16053
C         50.55507        29.19990        -1.42089
C         49.08624        29.53293        -1.49788
C         49.95541        31.50310        -0.08795
C         48.98968        30.94099        -0.91897
C         50.04997        32.93972         0.07862
C         48.73241        33.67371         0.06166
C         50.09560        35.79332         0.56807
C         48.93795        35.14858        -0.13587
C         50.11533        37.23429         0.04717
C         49.04541        38.05164         0.38743
C         50.35689        40.22369         0.92852
C         49.12402        39.56811         0.21767
C         50.22683        41.72669         1.15036
C         48.92854        42.45580         0.99398
C         49.75054        44.27655         2.45614
C         48.98957        43.99987         1.14423
C         51.68935        29.64501        -1.61813
C         52.75114        31.71234        -0.93758
C         52.87203        30.44583        -1.54559
C         52.32967        32.72221        -0.34216
C         51.29564        33.60109         0.10790
C         52.52371        35.61023         1.04901
C         51.41086        35.01326         0.48654
C         52.26780        36.92991         1.47445
C         51.77851        38.04841         1.71842
C         52.33024        40.32247         2.56734
C         51.57876        39.47768         1.57987
C         51.64380        41.16212         3.26658
C         50.66386        42.05594         3.02781
C         50.18948        43.33051         3.17079
O         31.59353        39.57513        -0.03078
O         33.29142        31.25020         2.61175
O         31.97806        37.39043        -1.07819
O         31.63951        34.79660         2.50189
O         45.16933        33.68677         1.20844
O         43.27469        29.26673        -1.88000
O         46.95857        39.71040         1.67872
O         36.95780        37.39612        -1.56550
O         46.82116        44.35068         2.34840
O         35.00948        42.26169        -1.88743
O         37.24591        44.38084         1.44188
O         46.23431        37.86336        -1.47336
O         36.90148        32.93858        -1.12742
O         41.18144        43.84054        -2.30110
O         40.68429        33.78542         1.51202
O         51.64341        39.98208         0.22802
O         45.45442        41.79850         1.78658
O         35.26386        27.71734        -0.09588
O         42.04809        26.20525         1.47586
O         34.60308        38.10079         1.37326
O         50.81806        30.71175         0.61070
H         51.36876        31.26663         1.19929
O         37.58137        40.01130         1.39694
H         38.31058        40.50843         1.83485
O         42.25048        26.87951        -2.12049
H         42.73658        27.48689        -2.72199
O         42.10413        29.24791         1.48040
H         41.54072        29.82608         2.05820
O         49.72043        35.80050         1.98670
H         50.50241        36.12274         2.49168
O         39.02181        42.42540         1.51849
H         39.78012        42.99537         1.81022
O         48.20629        28.82770         0.62441
H         49.04542        28.36973         0.84027
O         49.33168        39.89753        -1.18574
H         48.65930        39.41844        -1.71754
O         44.07315        39.41187         1.62665
H         44.58830        40.15416         2.02167
O         34.60372        32.31682        -0.71440
H         35.34544        32.25447        -1.36563
O         41.26254        31.03946        -1.67019
H         41.98180        30.57738        -2.16647
O         38.79892        30.94005        -1.28229
H         37.87771        30.65563        -1.45911
O         51.27108        42.41216         0.58072
H         51.96595        41.74290         0.34237
O         36.02966        35.27592        -1.54977
H         36.65288        34.71520        -2.06482
O         54.00722        30.02539        -2.11594
H         54.71576        30.69266        -2.02167
O         48.79878        29.58177        -2.90324
H         49.39150        30.23986        -3.32254
O         47.30290        37.01551         1.83312
H         48.07634        36.59587         2.28010
O         44.51085        45.29481         1.74277
H         45.22709        45.34984         2.42128
O         38.73127        44.03597        -1.82599
H         39.51283        43.65872        -2.31928
O         40.59157        31.27720         1.90943
H         41.06028        32.06423         2.28713
O         40.60146        40.01799        -2.02787
H         41.40053        40.55345        -2.26702
O         43.69166        38.32699        -1.87893
H         44.54169        38.57043        -2.31807
O         48.08716        33.47794         1.34742
H         48.50607        34.09881         1.98849
O         41.51117        34.76852        -1.81399
H         41.14135        35.53813        -2.31468
O         39.22725        33.47499        -1.82077
H         39.37348        32.50858        -1.97548
O         46.22358        29.27435        -2.47169
H         47.00693        29.55220        -3.00302
O         40.16082        46.28490        -1.89843
H         40.52109        45.45638        -2.33617
O         42.89184        37.35853         1.55097
H         42.02823        36.99542         1.87659
O         32.74981        41.30399        -2.54806
H         33.68898        41.41754        -2.84125
O         32.24129        33.09726        -0.51407
H         32.95783        32.69914        -1.06327
O         34.09323        33.82471         2.55858
H         34.75775        34.52305         2.78185
O         39.24322        46.71730         1.61493
H         38.40764        46.97136         2.06052
O         37.89116        36.03424         1.64089
H         38.10359        35.15989         2.02921
O         48.65938        35.79639        -1.40767
O         36.20833        42.03426         1.58748
H         36.96309        42.40829         2.10014
O         42.92972        32.80115         2.02638
H         43.88153        32.65614         2.24981
O         45.80564        45.53958        -1.78972
H         45.00042        45.30102        -2.31922
O         49.68035        44.54864         0.05197
H         50.55765        44.10875        -0.01853
O         38.26646        32.01752         2.16089
H         37.49788        31.86694         2.76286
O         40.43222        36.35700         1.37681
H         40.35465        35.53101         1.91583
O         45.74457        31.25618         1.42540
H         46.47155        31.86880         1.67934
O         36.46876        39.70133        -2.10633
H         36.89911        38.88219        -2.46521
O         28.05916        38.80178         0.26980
H         27.59694        37.98081         0.52958
O         34.66853        44.87169         1.59728
H         35.47769        45.04184         2.13162
O         35.72799        31.95531         2.73632
H         34.87795        31.99706         3.24598
O         40.41297        37.18587        -2.16958
H         40.53743        38.08776        -2.56030
O         35.58980        35.87932         2.01813
H         35.22228        36.70296         2.41963
O         45.48990        28.68659         1.03152
H         46.44528        28.60252         1.25756
O         45.88488        33.82339        -2.30010
H         45.27752        34.58605        -2.40875
O         45.42973        40.44472        -1.63930
H         44.62194        40.88047        -2.01571
O         41.71736        48.35573         1.68646
H         41.73977        49.28498         1.99374
O         37.73654        41.88069        -1.79686
H         37.03408        41.33089        -2.21575
O         48.38214        33.38342        -2.29071
H         47.65574        33.67910        -2.88968
O         39.76665        26.87679        -1.33322
H         38.94356        27.37640        -1.51869
O         41.19135        39.72945         1.60666
H         41.99907        39.37540         2.05287
O         43.41431        44.66433        -2.17916
H         42.60942        44.46300        -2.75667
O         40.69277        44.50121         1.27622
H         40.27727        45.24928         1.77516
O         42.94018        41.65739        -2.20293
H         42.44160        42.45720        -2.54361
O         51.08654        37.58696        -0.79872
H         50.96685        38.52642        -1.07407
