         234
 CSIRO Nanostructure Databank - Neutral Graphene Oxide Data Set
C          1.14072         2.04550         0.07360
C          1.06692         3.37733        -0.22169
C          2.38220         1.33673         0.11667
C          2.29659         4.13414        -0.51860
C          1.10028         6.42920        -0.71311
C          1.13722         7.77368        -0.52302
C          2.33669         5.63985        -0.76203
C          2.37633         8.47431        -0.31419
C          1.25406        10.77740        -0.30461
C          1.34702        12.13497        -0.15971
C          2.33594         9.88890         0.11431
C          2.52150        12.79801         0.31636
C          1.25346        15.01522         0.60367
C          1.20510        16.31868         0.91612
C          2.57536        14.32250         0.32171
C          2.44562        17.11117         1.13562
C          2.54252        18.51308         0.68828
C          3.59363         1.99900        -0.02326
C          3.58244         3.47843        -0.11602
C          4.85555         1.36498         0.11364
C          4.86958         4.20944        -0.34135
C          3.62506         6.35880        -0.58668
C          3.59685         7.78417        -0.37150
C          4.83424         5.66775        -0.65206
C          4.85793         8.48896        -0.22030
C          3.68120        10.59342         0.46886
C          3.70531        12.07802         0.52495
C          4.89693         9.84300         0.12843
C          4.95158        12.75894         0.75398
C          3.65423        14.81236         1.31367
C          3.72366        16.34594         1.33108
C          4.97738        14.14960         0.97730
C          5.00022        17.04655         1.07837
C          3.73901        19.14911         0.65155
C          5.00290        18.46634         0.87467
C          6.08795         1.97429        -0.16087
C          6.07139         3.37751        -0.71985
C          7.25447         1.25181         0.22172
C          7.30798         4.18169        -1.15014
C          6.07761         6.39140        -0.73820
C          6.07498         7.77490        -0.52697
C          7.32287         5.67494        -0.99712
C          7.31449         8.55267        -0.70158
C          6.18534        10.52295         0.37047
C          6.20480        11.96405         0.79952
C          7.43143         9.90300        -0.13263
C          7.55657        12.68987         0.81813
C          6.17788        14.89105         0.98119
C          6.19428        16.31276         1.03806
C          7.42193        14.18841         0.59205
C          7.47780        17.06552         1.10194
C          6.20778        19.16486         0.72031
C          7.47276        18.51800         0.80631
C          8.55305         1.44490        -0.27390
C          8.60846         3.50427        -1.26383
C          9.75423         1.01942         0.30557
C          9.82071         4.18574        -1.17597
C          8.52331         6.35108        -1.07684
C          8.60234         7.82400        -1.03286
C          9.80119         5.65363        -1.29770
C          9.89242         8.51141        -0.76790
C          8.63095        10.57688        -0.17256
C          8.60054        12.09198        -0.16132
C          9.88312         9.90705        -0.47214
C          9.95318        12.72471         0.10659
C          8.71935        14.91304         0.57661
C          8.78815        16.34401         0.99793
C          9.97625        14.10522         0.60138
C         10.03147        17.08064         0.65763
C          8.67027        19.17824         0.55929
C          9.95750        18.52635         0.49794
C         11.03862         1.45278        -0.13968
C         11.06774         3.51425        -1.07636
C         12.24854         1.32051         0.50061
C         12.29117         4.18124        -0.72051
C         11.11221         6.36719        -1.19892
C         11.10718         7.82156        -0.90362
C         12.31703         5.59567        -0.84411
C         12.34533         8.51547        -0.86998
C         11.11830        10.61651        -0.40782
C         11.14681        12.05828        -0.10642
C         12.31969         9.92391        -0.66361
C         12.40076        12.79999        -0.12348
C         11.26873        14.90054         0.48378
C         11.19288        16.38096         0.41892
C         12.45048        14.18400        -0.01657
C         12.46895        17.08484         0.24153
C         11.09393        19.23633         0.13603
C         12.41712        18.61844         0.10975
C         13.44260         2.09913         0.19925
C         13.45254         3.45302        -0.27992
C         14.66066         1.49694         0.58050
C         14.66769         4.27393         0.12738
C         13.61926         6.29301        -1.12807
C         13.59499         7.79521        -0.94590
C         14.81138         5.64033        -0.49521
C         14.81554         8.46012        -0.90864
C         13.55810        10.68545        -0.87075
C         13.70020        12.04024        -0.21008
C         14.85043         9.91661        -1.07738
C         14.86584        12.83561        -0.73513
C         13.63360        14.95507        -0.38216
C         13.61357        16.33982        -0.32900
C         14.85441        14.22859        -0.75080
C         14.72291        17.13116        -0.89267
C         13.58229        19.30216        -0.47276
C         14.75493        18.61836        -0.75935
C         15.92881         2.12692         0.39781
C         15.94967         3.48693         0.06803
C         17.14379         1.42076         0.72423
C         17.21104         4.18725        -0.12104
C         16.00510         6.33837        -0.39664
C         16.04995         7.77724        -0.60285
C         17.24367         5.65958        -0.09468
C         17.22301         8.49809        -0.32014
C         16.10583        10.63735        -0.83950
C         16.11317        12.10666        -1.19840
C         17.21845         9.95230        -0.42945
C         17.36130        12.83640        -0.78217
C         16.07318        14.94923        -0.97103
C         16.00925        16.39366        -1.21117
C         17.34193        14.27443        -0.87794
C         17.28511        17.17668        -1.26182
C         15.97660        19.30690        -0.98321
C         17.23574        18.64853        -1.00671
C         18.36548         2.05851         0.77660
C         18.49778         3.43152         0.26089
C         19.54804         1.44906         1.33460
C         19.66112         4.24063         0.64386
C         18.44206         6.35128         0.07910
C         18.44739         7.80204         0.03113
C         19.66462         5.64526         0.44084
C         19.64555         8.49527         0.26670
C         18.41572        10.72536        -0.02054
C         18.52424        12.15544        -0.41043
C         19.66554         9.97271         0.33672
C         19.76442        12.82529        -0.27935
C         18.54712        14.98048        -0.79071
C         18.57049        16.42941        -1.04973
C         19.87503        14.25006        -0.77475
C         19.80815        17.21168        -0.70862
C         18.40969        19.32745        -0.71506
C         19.58063        18.59621        -0.12261
C         20.69926         2.16241         1.50312
C         20.77721         3.57610         1.20334
C         21.94978         4.31839         1.46443
C         20.86267         6.36665         0.69516
C         20.88311         7.80963         0.50263
C         21.99494         5.67539         1.18685
C         22.07409         8.54365         0.54583
C         20.95039        10.69584         0.29571
C         20.94277        12.14447         0.15219
C         22.11156         9.94771         0.39171
C         22.08773        12.90124         0.46051
C         21.02291        15.01772        -0.14628
C         21.06075        16.49088        -0.26396
C         22.08034        14.31303         0.38889
C         22.09024        17.31327         0.37760
C         20.85331        19.37835        -0.03288
C         22.01762        18.71112         0.31143
O          7.97277        14.72330        -0.66644
O          8.24838        16.67070         2.31028
O         11.07084         2.18088        -1.36979
O         18.09425         3.59081        -1.13342
O          3.00961        16.90725         2.49386
O         10.80077        14.34808         1.77002
O         14.08204        10.48930        -2.21353
O          8.61613         2.16039        -1.51261
O         15.05464        16.74380        -2.27586
O          2.36300         4.67367        -1.88364
O         20.83588        17.01452        -1.68938
O          7.82395         8.48302        -2.08712
O          6.22309        10.90954         1.82585
O          6.35619         3.59569        -2.12268
O          4.34007         4.03614         1.02417
O         18.75502        10.50587         1.39289
O          2.81338        10.02039         1.49030
O         10.51611         6.07028        -2.53959
O         18.10292        16.79519        -2.41262
O         12.80662        17.93987         1.37897
O         14.04387        11.69336         1.18413
H         13.94184        12.50143         1.73163
O          8.10953        12.56571         2.14243
H          7.67650        11.78986         2.57235
O         13.78856         6.09367        -2.59007
H         12.96091         6.39408        -3.02675
O          3.28947        14.35499         2.62720
H          2.98668        15.14618         3.13394
O         20.19841        14.17641        -2.21864
H         20.32637        15.10632        -2.52533
O         14.45577         4.56875         1.57947
H         14.38651         3.70193         2.03613
O          8.17844        12.40589        -1.51526
H          8.80243        11.98081        -2.14009
O          3.01205        14.74436        -1.00081
H          2.37777        14.39415        -1.66041
O         19.16694        18.28427         1.27912
H         19.07289        19.13679         1.75553
O         16.11950        12.16990        -2.66506
H         15.32399        11.67016        -2.97167
H          0.21403         1.48110         0.25101
H          0.09087         3.87076        -0.32490
H          2.37097         0.24855         0.26973
H          0.14138         5.91498        -0.86278
H          0.19562         8.33861        -0.48131
H          0.38483        10.35112        -0.82512
H          0.49737        12.74826        -0.49439
H          0.31163        14.45668         0.49290
H          0.23690        16.82228         1.06669
H          1.61888        19.04325         0.41258
H          4.86813         0.31135         0.43139
H          3.78317        20.21054         0.36436
H          7.10510         0.42483         0.93260
H          6.17707        20.24297         0.50142
H          9.70119         0.46167         1.25047
H          8.64161        20.25978         0.35536
H         12.32674         0.60694         1.33403
H         11.00402        20.29159        -0.16263
H         14.63916         0.46751         0.96766
H         13.57118        20.40161        -0.52307
H         17.05993         0.37906         1.06907
H         15.97440        20.40063        -0.85676
H         19.50277         0.38999         1.62804
H         18.37380        20.42165        -0.58879
H         21.59111         1.67531         1.92362
H         22.82942         3.81194         1.88651
H         22.92163         6.22528         1.39892
H         23.03243         8.02107         0.66536
H         23.09380        10.43925         0.36076
H         22.98870        12.40447         0.84331
H         22.96299        14.85013         0.76449
H         22.98815        16.83881         0.79559
H         20.82139        20.47687        -0.05800
H         22.91005        19.29588         0.58230
