         277
 CSIRO Nanostructure Databank - Neutral Graphene Oxide Data Set
C        -11.22168         0.57807        -0.47062
C        -10.01636         1.32736        -1.03248
C         -8.78128         0.73992        -0.32356
C         -7.50262         1.50938        -0.61035
C         -6.19063         0.72908        -0.39165
C         -4.92437         1.45715        -0.09431
C         -3.66340         0.69939         0.30418
C         -2.43066         1.50000        -0.05132
C         -1.15628         0.74077        -0.39525
C         -0.14628         1.60328        -1.23855
C          1.18999         0.87725        -1.39355
C          2.40676         1.53524        -1.32147
C          3.68341         0.77230        -1.36668
C          4.97357         1.47274        -1.02745
C          6.01393         0.76129        -0.23993
C          7.24654         1.34958        -0.00120
C          8.40562         0.49447         0.52494
C          9.64249         1.33139         1.03490
C         10.95863         0.60420         0.90240
C         -9.99370         2.87583        -0.91605
C         -8.88627         3.61689        -0.50004
C         -7.85583         2.77519         0.20967
C         -5.81353         3.77837        -0.64203
C         -5.02457         2.89824         0.37995
C         -3.66198         3.57752         0.46177
C         -2.46048         2.85905        -0.03072
C         -1.21000         3.66597        -0.14644
C          0.02388         2.97258        -0.60856
C          1.26963         3.75308        -0.88992
C          2.53195         2.96360        -0.98505
C          3.72174         3.66312        -0.94409
C          5.02013         2.96076        -1.10920
C          6.33269         3.63439        -0.82934
C          7.56504         2.70214        -0.67890
C          8.72926         3.43504        -0.03848
C          9.74964         2.74077         0.49461
C         -8.73790         5.03676        -0.41642
C         -7.53640         5.76823        -0.09414
C         -6.11621         5.25565        -0.33849
C         -5.05471         5.77369         0.63864
C         -3.72003         5.05433         0.61811
C         -2.54403         5.86795         0.20712
C         -1.30327         5.16598        -0.22389
C         -0.02217         6.00778        -0.31353
C          1.27412         5.18431        -0.43667
C          2.54428         5.71145         0.17288
C          3.79889         5.00954        -0.27166
C          5.02375         5.89733        -0.53107
C          6.33823         5.10801        -0.59495
C          7.57261         5.78001        -0.06388
C          8.78226         4.93025         0.08621
C         -7.56487         7.13356         0.15147
C         -6.39079         8.01450         0.58166
C         -5.07092         7.26668         0.80941
C         -3.78408         7.98880         0.70718
C         -2.51154         7.22492         0.93529
C         -1.25731         7.97877         0.62376
C         -0.01066         7.18147         0.65746
C          1.27682         7.91369         0.76244
C          2.57876         7.16117         0.61170
C          3.88189         7.88817         0.61427
C          5.18726         7.07652         0.47021
C          6.38420         7.91612         0.05142
C          7.55528         7.26634        -0.19402
C         -6.15823         9.26473        -0.24316
C         -4.96531         9.89605        -0.27600
C         -3.72343         9.30520         0.23855
C         -2.48368        10.00896         0.20435
C         -1.23247         9.35516         0.45078
C          0.07153        10.03996         0.46404
C          1.25781         9.39154         0.66748
C          2.60582        10.09748         0.80959
C          3.77065         9.32869         0.11879
C          5.10398        10.03478         0.18591
C          6.27495         9.37153         0.07044
C        -11.14744        -0.72892        -0.15124
C         -9.84394        -1.51470        -0.25786
C         -8.73191        -0.62555         0.26754
C         -7.38081        -1.15900         0.81263
C         -6.25195        -0.77943        -0.16752
C         -4.88686        -1.30148         0.40397
C         -3.71612        -0.68466        -0.26374
C         -2.63296        -1.39033        -0.70055
C         -1.43011        -0.59655        -1.08685
C         -0.22846        -1.30585        -1.59638
C          1.10807        -0.58751        -1.66905
C          2.37062        -1.41285        -1.58020
C          3.66942        -0.72643        -1.26548
C          4.61188        -1.31236        -0.28080
C          5.59576        -0.51352         0.32126
C          6.53189        -1.13158         1.28379
C          7.95345        -0.59908         1.52658
C          9.95084        -1.59229         0.33071
C         11.09351        -0.70336         0.65029
C         -9.78756        -2.89237         0.35752
C         -8.64864        -3.43951         0.83119
C         -7.35960        -2.69620         1.15990
C         -6.11321        -3.45368         0.68605
C         -4.91819        -2.80000         0.36822
C         -3.79585        -3.50912        -0.18917
C         -2.70453        -2.83323        -0.77694
C         -1.58558        -3.58632        -1.39785
C         -0.30988        -2.81942        -1.70348
C          0.99259        -3.57929        -1.69113
C          2.17890        -2.82843        -1.14746
C          3.21731        -3.48368        -0.29511
C          4.58794        -2.82063        -0.17587
C          5.30622        -3.42771         1.05614
C          6.53626        -2.61304         1.39673
C          7.90963        -3.02775         0.86859
C          8.88426        -1.90767         1.35234
C         -8.63294        -4.85152         1.36329
C         -7.34521        -5.60968         1.06850
C         -6.11706        -4.89143         0.80120
C         -4.92135        -5.59057         0.53015
C         -3.79059        -4.95780        -0.08468
C         -2.67522        -5.72351        -0.48291
C         -1.55566        -5.13940        -1.32610
C         -0.19814        -5.68050        -0.78951
C          1.01662        -5.04860        -1.45349
C          2.41980        -5.64939        -1.21894
C          3.15206        -5.00612        -0.04010
C          4.54152        -5.66527         0.11145
C          5.64734        -4.89207         0.76359
C          7.05496        -5.39874         0.69388
C          8.21990        -4.50996         1.13558
C         -7.37638        -6.98494         1.05468
C         -6.15856        -7.77909         1.13431
C         -4.82321        -7.01178         0.85210
C         -3.67571        -7.78255         0.38228
C         -2.60708        -7.12197        -0.21991
C         -1.42671        -7.96001        -0.69506
C         -0.11636        -7.19919        -0.78485
C          1.07917        -7.86810        -0.79599
C          2.36028        -7.17619        -1.11564
C          3.67304        -7.86476        -0.91720
C          4.85194        -6.97001        -0.58854
C          6.14511        -7.58897        -0.14136
C          7.22492        -6.71650         0.42905
C         -6.14139        -9.23298         0.88999
C         -4.97924        -9.90267         0.70862
C         -3.69462        -9.23288         0.53326
C         -2.52639        -9.94040         0.41268
C         -1.23198        -9.19697         0.21039
C         -0.08293       -10.08184        -0.28656
C          1.19816        -9.29124        -0.43556
C          2.39009        -9.90033        -0.19348
C          3.74562        -9.36512        -0.61491
C          4.93568        -9.73584         0.24231
C          6.07031        -9.01165         0.28242
O          0.63261         7.23374         1.94573
O         -1.23162        -3.18181        -2.76676
O         -3.73132         0.36419         1.73506
O          3.27702         4.85135         1.09111
O          3.25267        -5.27739        -2.31790
H          3.11479        -5.91416        -3.05310
O         -9.13778         0.51364         1.06673
O         -5.25788        -7.36477         2.20300
O          6.57576         4.59606        -1.93765
O         -5.73372         5.93945        -1.56904
O         -7.76500         2.87980         1.41464
O         -6.49723        -1.41701        -1.42208
H         -5.96621        -0.95917        -2.10873
O          5.93101        -7.14604        -1.54202
O          4.08868        -0.07372        -2.50077
O        -10.03991         1.07852        -2.45226
H         -9.14436         1.30566        -2.79832
O          4.83164        -5.81808         1.54815
O         -0.10665         6.77405        -1.54294
H         -0.04474         6.14574        -2.29802
O         -7.09159        -2.85779         2.53481
O          3.28096         7.50800         1.87131
O          2.89767        10.23113         2.20117
H          2.91419         9.32196         2.58559
O         -0.32945       -10.63210        -1.61950
O         -3.45198         4.21082         1.77889
O          3.09711        -7.72643        -2.26629
O          5.34966        -3.00093        -1.34327
O          8.01314         2.39353        -2.02029
H          7.19977         2.23275        -2.56125
O         -5.31404         6.31956         1.95274
O         -1.75829        -8.38474        -2.04559
H         -1.81902        -7.55638        -2.58682
O          1.83462        -1.05545        -2.86341
O          8.00623         5.32391         1.27647
H          6.43150         6.40074         1.88680
O         -7.12958        -0.44988         2.01543
H         -7.04985        -1.14356         2.72797
O          2.42659        -5.24845         1.16967
H          2.92550        -4.79081         1.89133
O          0.99712        -4.52111        -2.81029
O         -0.79758        -8.72570         1.51156
H         -1.50740        -8.16185         1.88692
O         -9.77823        -5.57414         0.91484
H        -10.05545        -6.19463         1.61674
O         -4.70077        -0.78565         1.79589
O         -1.17534        -0.65130        -2.52150
O         -0.68726         1.89348        -2.53627
H         -0.81596         1.03216        -3.01039
O          5.31868         2.14963        -2.30006
O         -2.43679         6.86077         2.34776
H         -3.33246         6.56564         2.63367
O          2.10914        -2.79680         0.34491
O          3.41304         9.23498        -1.28754
H          4.02829         8.60412        -1.72613
O         -9.54787        -1.69407        -1.67538
H        -10.27335        -2.21986        -2.07097
O         -5.24848         1.08861        -1.46746
O          7.80489        -2.79420        -0.55629
H          6.84621        -2.97879        -0.92196
O          4.37472        -3.41383         2.15176
H          4.67731        -2.72375         2.78841
O         10.23704        -2.55224        -0.53619
H         11.01252        -2.33383        -1.09046
O         -2.27388         5.68350        -1.20378
O          6.24763        -1.80895         2.59054
O         -0.50078         0.39026         0.84110
H         -0.42946         1.20999         1.38554
O          4.02037       -10.05920        -1.86528
H          3.55820        -9.55066        -2.57229
O         -5.76007         3.48568        -1.82984
H         -5.85022         5.29254        -2.30726
O         -1.74666        -5.65353        -2.66201
H         -1.35469        -4.98016        -3.27486
O         -0.20667        -5.24590         0.59247
H          0.71084        -5.31020         0.97168
O          1.34059         4.82162        -1.87535
O         -6.79690         8.51644         1.88991
H         -6.70386         7.76665         2.51990
O         -7.58199         1.82486        -2.01244
H         -6.65882         1.89911        -2.36058
O          8.02598        -0.12560         2.85305
H          7.42766        -0.69730         3.39118
O          5.46765         6.53197         1.76703
O         -0.23620         3.11634         0.82924
O          8.91156        -0.35396        -0.60980
H          8.19183        -1.01434        -0.87759
O         -5.53743         2.86373         1.69548
H         -4.97673         3.42570         2.28194
O          9.56964         1.60553         2.45191
H          8.75442         2.11819         2.63546
O         -1.71503       -11.05184        -1.69531
H         -2.13076       -10.26177        -2.13801
O          8.43453        -4.64482         2.54551
H          8.30873        -5.58269         2.79712
O          4.80476         6.50788        -1.82300
H          5.18047         5.89368        -2.49898
H         12.09564        -1.15602         0.58230
H         11.85842         1.20639         1.09963
H         10.60781         3.29912         0.90656
H          9.79035         5.39576         0.05299
H          8.48099         7.81489        -0.42394
H          7.21789         9.93848         0.01725
H          5.10492        11.13503         0.21498
H          2.54508        11.12586         0.37310
H          0.06989        11.13532         0.34873
H         -2.48873        11.07437        -0.06935
H         -4.87996        10.86308        -0.79553
H         -7.03922         9.74485        -0.69479
H         -8.54827         7.62544         0.23395
H         -9.64424         5.65369        -0.54686
H        -10.83308         3.40433        -1.40172
H        -12.18490         1.10736        -0.39541
H        -12.04865        -1.25359         0.20593
H        -10.67167        -3.54488         0.25399
H         -8.68023        -4.76719         2.48825
H         -8.34437        -7.50868         1.02577
H         -7.09921        -9.77440         0.90174
H         -4.98926       -10.99774         0.60293
H         -2.51309       -11.02151         0.61592
H          0.06292       -10.92979         0.43882
H          2.37245       -10.95903         0.11390
H          4.93350       -10.74937         0.67254
H          6.94062        -9.40737         0.83073
H          8.23465        -7.15867         0.47950
H          9.15040        -4.81875         0.57793
H          9.35455        -2.15512         2.32760
