         480
 CSIRO Nanostructure Databank - Neutral Graphene Oxide Data Set
C         37.66793        50.02892         1.97161
C         36.47696        50.67012         1.94619
C         37.53758        52.81950         1.49170
C         36.41084        52.10197         1.78551
C         40.29610        48.67298         1.72812
C         40.14112        50.00583         1.43470
C         38.96832        50.79887         1.98106
C         39.92493        52.81979         0.81452
C         38.81975        52.17981         1.36744
C         39.89381        54.21317         0.36600
C         42.40563        48.46910         0.50161
C         41.43429        47.91550         1.28324
C         42.31323        49.90332         0.18040
C         41.18562        50.70178         0.72388
C         42.29553        52.81661        -0.09426
C         41.13206        52.07303         0.53801
C         42.35430        54.24914         0.45690
C         41.02823        54.90678         0.13979
C         44.90768        45.66860         0.39699
C         43.71618        46.30485         0.37849
C         44.86167        48.48278        -0.13511
C         43.55153        47.70622        -0.14533
C         44.87806        49.89238        -0.27454
C         43.58205        50.61894        -0.21167
C         44.89786        52.81350         0.11982
C         43.60301        52.07235         0.13080
C         44.84726        54.29626        -0.03233
C         43.60826        54.98159         0.00732
C         44.80093        57.06726        -0.37913
C         43.61299        56.37068        -0.18302
C         47.50990        44.21114         0.13292
C         47.36169        45.60325        -0.17150
C         46.13053        46.32134        -0.02071
C         47.25475        48.41507        -0.65990
C         46.08081        47.73509        -0.22922
C         47.35077        49.89653        -0.53022
C         46.06856        50.64159        -0.44901
C         47.30041        52.81272        -0.42736
C         46.13395        52.08306        -0.29191
C         47.35377        54.25706         0.04523
C         46.05371        55.00043        -0.18537
C         47.30898        57.14012        -0.42698
C         46.04677        56.40859        -0.33558
C         47.30908        58.59307        -0.38968
C         49.88457        44.18225        -0.52124
C         48.70694        43.54382        -0.05835
C         49.79712        45.59994        -0.89623
C         48.47636        46.26534        -0.76423
C         50.14463        48.76726        -1.13615
C         48.28891        47.60577        -1.14433
C         49.98935        50.07361        -0.77142
C         48.63450        50.69062        -0.62454
C         49.84376        52.90012        -0.51306
C         48.57244        52.17122        -0.92977
C         49.78148        54.32504        -0.55999
C         48.57492        55.01758        -0.44088
C         49.78782        57.24159        -0.80812
C         48.51627        56.44902        -0.51904
C         49.75755        58.66149        -0.25188
C         48.44088        59.32792        -0.27347
C         52.42157        41.41465        -0.15862
C         51.24496        42.08694        -0.38301
C         52.35589        44.27320        -0.30619
C         51.16121        43.52615        -0.44982
C         52.36111        45.70434        -0.32937
C         51.14150        46.41844        -0.76890
C         52.25807        48.63451         0.18993
C         51.10805        47.89140        -0.48414
C         52.30919        50.10674         0.05426
C         51.13929        50.78483        -0.25805
C         52.31340        52.96019        -0.23545
C         51.07168        52.24188        -0.30295
C         52.32293        54.35294        -0.48250
C         51.05571        55.06677        -0.87888
C         52.32190        57.21312        -0.60780
C         51.02990        56.47685        -0.29395
C         52.26702        58.65872        -0.84291
C         51.05673        59.41494        -0.36717
C         52.25271        61.56933        -0.65344
C         51.12117        60.89197        -0.41692
C         54.95613        40.03295         0.54549
C         54.85945        41.46681         0.45272
C         53.63123        42.10288         0.16754
C         54.83808        44.34146         0.40396
C         53.54771        43.56800         0.22717
C         54.83829        45.73269        -0.18636
C         53.51646        46.42861        -0.00585
C         54.81942        48.60506         0.50144
C         53.51305        47.84700         0.37942
C         54.82323        50.11621         0.59171
C         53.48549        50.88428         0.64061
C         54.76081        52.90522        -0.24480
C         53.56703        52.27626         0.02721
C         54.75731        54.30150        -0.73154
C         53.51476        55.07225        -0.59855
C         54.79209        57.23573        -0.76516
C         53.51737        56.51469        -0.73012
C         54.80316        58.66104        -0.71622
C         53.59001        59.42882        -1.00894
C         54.72408        61.61084        -0.21598
C         53.59472        60.96463        -1.01497
C         54.88829        63.06273        -0.31428
C         57.40095        40.05165         0.86788
C         56.14178        39.37389         0.72457
C         57.34238        41.52773         0.93642
C         56.08131        42.22464         0.59658
C         57.34342        44.35306         0.25057
C         56.11368        43.60857         0.44805
C         57.29332        45.75991         0.04959
C         56.08811        46.50489         0.13128
C         57.30869        48.65460         0.04412
C         56.08070        47.90378         0.19965
C         57.30806        50.04675        -0.02972
C         56.12092        50.84228         0.36152
C         57.30979        52.98171        -0.48075
C         56.10563        52.37208         0.22124
C         57.35391        54.34901        -0.70438
C         56.06107        55.06504        -0.90771
C         57.28117        57.24584        -0.89223
C         56.01212        56.52390        -0.78687
C         57.33661        58.60301        -0.30492
C         55.98879        59.32733        -0.18468
C         57.27791        61.52071         0.10020
C         56.00013        60.80562         0.05007
C         57.26016        62.89757         0.30779
C         56.03775        63.64837         0.11047
C         59.86516        37.25595         0.75271
C         58.68179        37.93255         0.83754
C         59.92383        40.07454         0.91191
C         58.61918        39.36592         0.88715
C         59.95413        41.58593         0.81421
C         58.64938        42.32250         0.82689
C         59.82996        44.36391        -0.00298
C         58.60133        43.68614         0.27937
C         59.80796        45.75059        -0.21622
C         58.51473        46.47181        -0.43963
C         59.76908        48.61701        -0.06964
C         58.54450        47.93809        -0.11885
C         59.81677        50.04049        -0.21160
C         58.54288        50.71180        -0.46052
C         59.83757        52.91909        -0.59262
C         58.55092        52.22449        -0.67432
C         59.83688        54.35065        -0.62889
C         58.60489        55.03486        -0.82525
C         59.85107        57.23104        -0.62236
C         58.63039        56.49515        -0.97601
C         59.81834        58.66140        -0.48923
C         58.59404        59.34629        -0.34326
C         59.82369        61.48184         0.10817
C         58.54346        60.85190        -0.41273
C         59.79796        62.93359         0.44192
C         58.49034        63.63516         0.54102
C         59.71513        65.62653         1.23658
C         58.50067        64.91735         1.05210
C         62.40027        35.77511         0.67814
C         62.35874        37.19044         0.52976
C         61.13147        37.92821         0.59629
C         62.35755        40.04657         0.26847
C         61.15252        39.33562         0.54651
C         62.35280        41.50688         0.08786
C         61.15566        42.25031         0.25718
C         62.31146        44.32234        -0.33590
C         61.11155        43.64147        -0.00995
C         62.27433        45.80015        -0.68045
C         61.01814        46.50402        -0.24628
C         62.23960        48.63318         0.33294
C         61.00742        47.87969        -0.08627
C         62.28252        50.07087        -0.16627
C         61.03713        50.75273        -0.34075
C         62.29605        52.88104        -0.62841
C         61.04151        52.18579        -0.52904
C         62.31266        54.33705        -0.62477
C         61.07678        55.06079        -0.57820
C         62.28763        57.22071        -0.40084
C         61.07081        56.50960        -0.51766
C         62.29867        58.64061        -0.39152
C         61.08040        59.37662        -0.38671
C         62.31358        61.50118        -0.10704
C         61.10825        60.79709        -0.22252
C         62.33634        62.99919        -0.08195
C         61.02314        63.77538         0.19408
C         62.02022        66.09282         0.58868
C         60.92668        65.17090         0.72978
C         62.34357        67.21974         1.35396
C         64.84030        35.77940         0.55905
C         63.59483        35.09862         0.69797
C         64.83170        37.17719         0.34804
C         63.58335        37.89414         0.34593
C         64.79754        39.96191        -0.27562
C         63.54877        39.30293         0.13840
C         64.79536        41.45010        -0.51374
C         63.53613        42.20291        -0.28143
C         64.79279        44.34031        -0.77362
C         63.52200        43.60567        -0.46366
C         64.80895        45.82934        -0.52020
C         63.52992        46.54353        -0.26518
C         64.75351        48.61645         0.33767
C         63.50970        47.86119         0.06214
C         64.76915        50.10881         0.09449
C         63.48850        50.76934        -0.29231
C         64.77839        52.83140        -1.03996
C         63.49861        52.15835        -0.60241
C         64.79270        54.33174        -0.77890
C         63.54666        55.01904        -0.59056
C         64.72968        57.22467        -0.82748
C         63.58190        56.47379        -0.18659
C         64.77924        58.67417        -0.50726
C         63.55095        59.36216        -0.31408
C         64.81138        61.43477         0.03016
C         63.55467        60.77497        -0.13157
C         64.84007        62.86131         0.33663
C         63.64602        63.62978         0.18116
C         64.88284        65.69931         0.80784
C         63.82068        65.03507         0.19960
C         64.85080        67.10651         1.08029
C         63.63146        67.78157         1.36196
C         67.32730        33.00520         1.06678
C         66.13151        33.67946         0.94081
C         67.32977        35.75733         0.46226
C         66.09491        35.06531         0.64550
C         67.32353        37.18054         0.25295
C         66.08426        37.88283         0.20235
C         67.28946        40.00313        -0.08710
C         66.08013        39.28020        -0.01824
C         67.27145        41.46079        -0.21784
C         66.08739        42.15088        -0.39949
C         67.29779        44.34021        -0.21590
C         66.13824        43.59328        -0.84088
C         67.27096        45.75486        -0.02144
C         66.06564        46.47211        -0.08961
C         67.36548        48.66457         0.28808
C         66.03202        47.84689         0.37162
C         67.29157        50.10448        -0.03063
C         66.06506        50.79319        -0.16362
C         67.26689        52.83718        -0.75142
C         66.05798        52.15006        -0.58206
C         67.25837        54.25106        -1.29409
C         65.99196        55.00912        -0.94218
C         67.27566        57.24948        -1.26553
C         65.98090        56.47717        -1.16985
C         67.28066        58.69525        -0.84475
C         66.00268        59.35396        -0.44919
C         67.32067        61.48353        -0.12359
C         66.01357        60.72570        -0.11475
C         67.26527        62.70716         0.76966
C         66.02780        63.49260         0.70065
C         67.34675        65.59995         1.15776
C         66.02889        64.86858         1.32804
C         67.34029        67.06075         1.23369
C         66.11786        67.77959         1.27673
C         67.32975        69.89662         1.54183
C         66.17501        69.22279         1.33868
C         69.89430        31.72460         1.67162
C         69.80833        32.94956         0.98428
C         68.56882        33.65625         0.84033
C         69.81027        35.74967         0.30176
C         68.56184        35.04651         0.50553
C         69.80876        37.16378         0.11285
C         68.55018        37.89131         0.08733
C         69.76632        40.05891        -0.29932
C         68.51810        39.29900        -0.06774
C         69.76769        41.51132        -0.01097
C         68.51886        42.19759        -0.06439
C         69.68901        44.34491         0.43195
C         68.47398        43.61584         0.02387
C         69.73510        45.78456         0.16119
C         68.53605        46.48343         0.07790
C         69.78924        48.61224        -0.24806
C         68.56291        47.91356        -0.03957
C         69.76750        50.04334        -0.34363
C         68.52056        50.76665        -0.31224
C         69.74830        52.88023        -0.71834
C         68.50661        52.16693        -0.58393
C         69.72720        54.32645        -0.85771
C         68.52515        55.01371        -0.98162
C         69.79160        57.19883        -0.81020
C         68.59050        56.47199        -1.39619
C         69.78928        58.55217        -0.45711
C         68.55269        59.33417        -0.39997
C         69.79500        61.22168         0.68739
C         68.54783        60.62117         0.05830
C         69.82436        62.73698         0.73628
C         68.55819        63.42801         1.05157
C         69.79607        65.61481         0.67885
C         68.52025        64.90801         1.07068
C         69.79835        67.08460         1.05107
C         68.58187        67.75345         1.29873
C         69.85829        69.94186         1.35089
C         68.62397        69.17894         1.80616
C         69.89640        71.34051         1.42106
C         72.32624        31.71272         1.46560
C         71.11428        31.10397         1.90771
C         72.31062        32.87720         0.75959
C         71.02676        33.51244         0.29696
C         72.23400        35.72583         0.11876
C         71.03678        35.03123         0.28140
C         72.24204        37.11635        -0.01657
C         71.04884        37.84185        -0.04000
C         72.28465        40.08809         0.05169
C         71.08350        39.30818        -0.27963
C         72.22990        41.44096         0.19277
C         70.99213        42.17118         0.20006
C         72.24000        44.41847         0.60159
C         70.99739        43.59363         0.57988
C         72.23684        45.72263         0.29181
C         71.02731        46.38816        -0.32519
C         72.20293        48.61853        -0.51933
C         71.01908        47.90166        -0.31643
C         72.19050        50.00561        -0.63510
C         70.98771        50.74071        -0.55399
C         72.19116        52.91378        -0.81517
C         70.97087        52.18493        -0.68878
C         72.19528        54.28502        -0.89568
C         70.99156        55.03656        -0.87653
C         72.24340        57.16427        -0.61064
C         71.01711        56.45922        -0.79439
C         72.25406        58.51376        -0.38154
C         71.03707        59.24119        -0.22196
C         72.23812        61.38419         0.13621
C         71.05549        60.61024         0.13615
C         72.23718        62.72555         0.46871
C         71.02118        63.42482         0.75236
C         72.27438        65.66677         0.86563
C         71.03064        64.87984         1.20814
C         72.23633        67.01718         0.76296
C         71.01764        67.77872         0.94428
C         72.19315        69.96984         0.64431
C         71.03423        69.23437         0.98482
C         72.19949        71.35971         0.68726
C         71.05164        72.04987         1.08681
O         55.01667        61.11124         1.10863
O         57.96721        42.15634         2.10646
O         57.96196        57.06407        -2.16489
O         48.14883        50.31370         0.69788
O         64.71297        40.51593        -1.65092
O         60.19496        40.92092         2.09371
O         65.00160        56.87726        -2.21145
O         55.67865        50.47547         1.72719
O         67.24520        58.31270        -2.27645
O         51.12782        48.13735         0.97384
O         56.60306        58.63720         0.96597
O         55.35555        54.50616        -2.08057
O         50.62582        45.99180        -2.04276
O         42.62334        50.24775        -1.26197
O         70.17914        43.90917         1.76646
O         66.79854        48.17381         1.55279
O         52.79776        58.99384        -2.16887
O         70.45066        39.69775        -1.55120
O         64.65524        49.55274         1.46347
O         67.81662        62.69000         2.13779
O         59.86785        61.91387         1.51408
O         61.53760        63.61590        -1.15950
O         50.57447        58.91306         0.94088
O         49.22009        48.20182        -2.00686
O         53.97193        44.13658         1.54251
O         62.87453        65.82253        -0.48684
O         58.44926        51.29057        -1.82787
O         64.75615        45.27520        -1.91753
O         44.30307        52.32283         1.38224
O         54.14203        48.06017         1.70077
O         48.55225        52.26191        -2.39565
H         48.48879        53.21045        -2.63760
O         69.87985        65.54038        -0.77477
H         69.11847        66.03020        -1.14999
O         58.52252        61.16427        -1.85566
H         59.26750        60.68717        -2.28129
O         71.08209        46.00233        -1.75341
H         70.35526        46.47038        -2.21710
O         70.92076        64.85785         2.65887
H         71.63430        64.28648         3.01139
O         42.09180        52.91800        -1.52068
H         42.04030        51.99604        -1.86970
O         65.81883        64.66782         2.76749
H         66.50389        64.01753         3.05189
O         43.18625        47.57154        -1.56161
H         42.95808        48.48063        -1.87669
O         70.88879        33.12674        -1.12964
H         70.85066        32.14692        -1.15906
O         66.49636        43.48675        -2.25820
H         66.13167        44.28685        -2.70352
O         63.87264        56.50314         1.25618
H         63.10321        56.11604         1.72493
O         64.77861        52.69311        -2.49817
H         65.55367        53.20519        -2.84270
O         39.28757        51.02297         3.40210
H         38.57325        51.58497         3.77076
O         68.84280        56.40044        -2.84890
H         68.53831        57.26545        -3.21667
O         49.86789        57.45392        -2.23683
H         50.21151        56.63061        -2.65993
O         56.23520        52.92700         1.56816
H         55.79972        52.27913         2.17706
O         62.11591        48.72935         1.78950
H         62.95509        49.14364         2.11190
O         42.44419        54.14235         1.90053
H         42.57214        55.04052         2.26844
O         67.45303        62.05957        -1.46787
H         67.36088        61.32884        -2.11668
O         53.17224        51.07685         2.04087
H         53.21815        50.19864         2.47896
O         50.92464        56.28889         1.12840
H         50.86967        57.18038         1.54823
O         51.13045        55.14882        -2.34133
H         51.39370        54.26912        -2.68590
O         67.23028        54.11068        -2.76904
H         67.67797        54.91477        -3.14046
O         53.87220        61.36473        -2.38185
H         53.33895        60.77526        -2.96293
O         47.51503        54.18309         1.50101
H         46.78718        53.62861         1.85686
O         68.74187        69.07236         3.27324
H         69.50192        68.48122         3.46159
O         58.34136        46.43351        -1.94022
H         59.19910        46.71104        -2.33341
O         62.18913        45.88228        -2.14217
H         63.06331        45.57560        -2.49228
O         54.93072        45.53394        -1.65273
H         55.86952        45.65019        -1.92461
O         69.75329        60.79288         2.10204
H         69.01542        61.30527         2.51799
H         37.69699        48.93794         2.10613
H         35.53702        50.10458         2.02507
H         37.44655        53.89398         1.27809
H         35.43306        52.60036         1.83564
H         39.54075        48.14516         2.32589
H         38.92021        54.69956         0.20826
H         41.48097        46.85709         1.57407
H         40.97272        55.95045        -0.20204
H         44.94781        44.61878         0.72085
H         42.81110        45.74299         0.64879
H         44.74624        58.15300        -0.52937
H         42.67070        56.93529        -0.16737
H         46.65937        43.65098         0.54306
H         46.34667        59.12193        -0.38626
H         48.75850        42.48336         0.22559
H         48.38401        60.41983        -0.15979
H         52.41408        40.31669        -0.20101
H         50.33893        41.50052        -0.58931
H         52.21409        62.66924        -0.65877
H         50.20093        61.44656        -0.18012
H         54.03919        39.43483         0.45688
H         54.06700        63.67466        -0.71198
H         56.11899        38.27644         0.75413
H         56.10756        64.74491         0.09296
H         59.83761        36.15889         0.76176
H         57.75397        37.34987         0.90725
H         59.66164        66.65318         1.62753
H         57.56269        65.43479         1.29318
H         61.47083        35.20428         0.79954
H         61.57982        67.66713         2.00782
H         63.57438        34.00918         0.82837
H         63.71690        68.76187         1.85520
H         67.30790        31.93274         1.30248
H         65.20002        33.11974         1.09322
H         67.30669        70.99436         1.58297
H         65.24983        69.79571         1.18183
H         68.98594        31.27330         2.09585
H         69.01139        71.90189         1.74959
H         73.28415        31.23624         1.72010
H         71.15381        30.16464         2.47498
H         73.26258        33.29699         0.40590
H         73.19238        35.19292         0.07629
H         73.20389        37.62758        -0.15506
H         73.23976        39.57030         0.21616
H         73.15655        41.98712         0.41862
H         73.15909        43.95904         0.99796
H         73.16552        46.30386         0.39196
H         73.15999        48.08627        -0.60619
H         73.14477        50.51757        -0.81094
H         73.15257        52.38570        -0.82556
H         73.16261        54.79703        -0.97483
H         73.20046        56.62892        -0.64244
H         73.21755        59.01896        -0.23661
H         73.19126        60.92792        -0.16481
H         73.19221        63.26695         0.46380
H         73.24884        65.15964         0.81410
H         73.17805        67.55649         0.58876
H         73.10747        69.44788         0.33251
H         73.10979        71.91201         0.41616
H         71.05631        73.14711         1.14128
