         260
 CSIRO Nanostructure Databank - Neutral Graphene Oxide Data Set
C         30.57334        31.73425         1.69316
C         30.63663        32.90846         2.10631
C         30.60447        36.03981         2.08786
C         30.53340        37.25468         1.90176
C         30.25618        40.28563         0.99317
C         30.16786        41.04387         0.00257
C         32.86352        28.94507         0.82611
C         31.75505        29.51172         1.03031
C         32.92032        31.61269         1.23273
C         31.64324        30.87729         1.32306
C         32.98136        33.00942         1.49729
C         31.84280        33.73440         2.10090
C         32.99139        36.06058         1.60588
C         31.83138        35.24249         2.13364
C         32.92310        37.44844         1.56263
C         31.64286        38.21075         1.81887
C         32.69435        40.44632         0.91010
C         31.50118        39.64885         1.43495
C         32.52167        41.63007        -0.01382
C         31.10447        41.92642        -0.58509
C         32.15966        43.69445        -1.81411
C         31.17213        42.91573        -1.51496
C         35.53406        27.32613         0.69765
C         35.40717        28.76260         0.72353
C         34.16474        29.48588         0.78286
C         35.44367        31.59871         1.04434
C         34.13668        30.89110         0.94988
C         35.45326        33.09203         1.09441
C         34.11496        33.81042         0.87702
C         35.28160        35.98623         0.72090
C         34.17103        35.31537         1.18207
C         35.33992        37.46792         0.75519
C         34.12973        38.25918         1.27041
C         35.22398        40.50631         0.43528
C         34.04545        39.77285         1.01784
C         35.11610        41.84023        -0.32347
C         33.73080        42.32368        -0.66489
C         35.38252        45.00954        -0.71246
C         33.41173        43.68594        -1.25679
C         35.54678        46.39661        -0.48950
C         37.94955        27.15972         0.49559
C         36.60097        26.69963         0.58720
C         37.92773        28.66423         0.64877
C         36.64050        29.41532         0.69174
C         37.79493        31.54950         0.18938
C         36.68706        30.86780         0.64858
C         37.72118        33.00834        -0.12385
C         36.74246        33.84134         0.73979
C         37.60495        35.93805        -0.43490
C         36.43408        35.21642         0.15258
C         37.60594        37.45493        -0.47940
C         36.35454        38.19262        -0.08228
C         37.71533        40.44407        -0.19460
C         36.39890        39.70619        -0.06208
C         37.67588        41.91943         0.12836
C         36.39001        42.69253        -0.12189
C         37.74410        44.81599        -0.01175
C         36.48835        44.18896        -0.34424
C         37.88661        46.22132         0.14357
C         36.65470        46.83412        -0.06608
C         40.27983        24.39366        -0.29752
C         39.29776        25.08671         0.00765
C         40.45570        27.20330         0.16360
C         39.09972        26.47994         0.23097
C         40.28069        28.60528        -0.46859
C         39.15227        29.39846         0.18749
C         40.23404        31.50518        -0.80488
C         38.99248        30.80957        -0.29369
C         40.22229        33.00258        -1.05078
C         38.88368        33.70176        -0.79523
C         40.16271        35.96612        -0.89137
C         38.88296        35.21560        -0.80388
C         40.20749        37.39011        -0.39632
C         38.89771        38.18769        -0.21986
C         40.22482        40.30531         0.21115
C         38.95217        39.65213        -0.09719
C         40.28166        41.81557         0.32668
C         39.01497        42.60934         0.24124
C         40.33154        44.76736         0.01004
C         39.03135        44.02144        -0.32669
C         40.32762        46.21330        -0.47073
C         39.19380        46.89437         0.46044
C         40.44183        48.97469         0.08267
C         39.37070        48.34862         0.13666
C         42.83550        24.38718        -0.85451
C         41.44124        24.90363        -1.08149
C         42.71191        27.16660        -0.83919
C         41.57833        26.47503        -0.59016
C         42.85030        28.60380        -0.32394
C         41.56602        29.42347        -0.44847
C         42.77325        31.60735        -0.67096
C         41.54997        30.79268        -0.64857
C         42.81551        32.98130        -0.89334
C         41.53431        33.75748        -1.17985
C         42.44881        36.10889        -1.56379
C         41.47679        35.27108        -1.07444
C         42.44760        37.56338        -1.40975
C         41.40608        38.17002        -0.71171
C         42.65094        40.36669        -0.78026
C         41.50820        39.55542        -0.23175
C         42.69891        41.84488        -0.60919
C         41.67787        42.48734         0.30837
C         42.88890        44.70607        -0.21416
C         41.61326        44.00379         0.09519
C         42.92939        46.08448        -0.14354
C         41.70803        46.90367        -0.38910
C         43.07965        48.83588         0.24514
C         41.75975        48.47068        -0.28240
C         43.84549        25.05693        -1.07893
C         45.28507        27.17249        -1.11503
C         43.97583        26.48851        -1.48857
C         45.31323        28.66784        -0.91924
C         43.97623        29.41474        -0.97870
C         45.32354        31.52054        -0.70647
C         44.04077        30.81854        -0.29487
C         45.29956        32.94055        -0.28632
C         44.10321        33.68770        -0.76815
C         45.55466        35.73848        -0.74978
C         44.42204        34.94180        -1.24787
C         45.49076        37.15506        -0.98219
C         43.67516        38.32435        -1.61476
C         45.21468        40.27220        -1.15423
C         43.86396        39.60333        -1.17109
C         45.23498        41.78329        -1.03706
C         44.00347        42.56433        -0.73571
C         45.35369        44.62431        -0.98623
C         44.07279        43.92415        -0.53847
C         45.39336        46.11948        -0.57946
C         44.29886        46.68748         0.26419
C         44.11872        48.16998         0.24135
C         47.39395        27.18110         0.13577
C         46.39701        26.61273        -0.32413
C         47.60327        28.61365         0.42427
C         46.47517        29.36660        -0.23744
C         48.01505        31.48403        -0.76824
C         46.62731        30.78828        -0.70741
C         47.91360        32.99919        -0.38248
C         46.58275        33.61987         0.00862
C         47.63495        35.71818         0.77534
C         46.55023        35.10705         0.02294
C         47.63316        37.15452         1.05032
C         46.03627        38.15656        -0.14945
C         47.39875        40.17872         0.34179
C         46.31127        39.50328        -0.45968
C         47.68705        41.60157        -0.08057
C         46.56101        42.41362        -0.66215
C         47.99588        44.52386        -0.72061
C         46.57182        43.90166        -0.31742
C         47.86888        46.02251        -0.47848
C         46.71255        46.52287        -0.62289
C         49.94523        29.01233         1.55731
C         48.93749        29.28679         0.50782
C         50.41296        31.51171         0.31573
C         49.13822        30.70985        -0.01829
C         50.47595        33.04094         0.06930
C         49.16987        33.78019        -0.10759
C         50.20280        35.97143         0.78616
C         49.06905        35.07183         0.67323
C         50.03989        37.32591         1.22216
C         48.72195        37.96859         1.15006
C         49.71547        40.23921         1.70359
C         48.52562        39.45921         1.15148
C         49.71739        41.75984         1.59944
C         48.92212        42.34079         0.42963
C         50.12417        44.47062         0.89329
C         49.08057        43.80220         0.07494
C         51.02652        29.61899         1.66753
C         52.48694        31.76657         1.54642
C         51.44990        30.91774         1.26321
C         52.48957        33.01975         1.22542
C         51.57436        33.86222         0.68093
C         52.54235        36.15787         1.28947
C         51.59253        35.35022         0.43444
C         52.34045        37.34300         1.61840
C         51.13096        38.08335         1.73365
C         52.09792        40.36787         2.42407
C         50.96701        39.46854         2.18797
C         52.08275        41.61811         2.45512
C         51.50538        42.50289         1.45159
C         50.99712        43.88059         1.55160
O         49.52393        29.51432        -0.77968
O         39.03888        43.85897        -1.72177
O         48.21538        34.91524         1.84660
O         34.54601        41.57498        -1.63367
O         42.17798        41.29566        -1.85183
O         45.38809        41.11062        -2.33162
O         39.59512        42.32354         1.53340
O         46.36547        37.71582         1.14220
O         49.74355        42.76641        -0.72004
O         36.53088        35.37910        -1.27460
O         36.61538        37.82521        -1.46889
O         35.27235        37.96606         2.12284
O         46.54879        29.21051         1.21678
O         48.55480        33.83038        -1.41546
O         39.27579        30.88158        -1.73427
O         43.58523        35.57075        -2.15950
O         45.74224        28.05731        -2.17801
O         39.33583        35.77636        -2.08971
O         36.84320        42.33700         1.24060
O         40.80606        33.28634        -2.35934
O         44.78983        37.60077        -2.10245
O         38.93458        29.19136         1.59892
O         45.79506        33.04138         1.09956
O         47.32000        39.98942         1.78578
O         32.62842        41.81098         1.42954
O         47.59932        41.86559        -1.51090
O         34.98624        40.51301         1.85398
O         45.89602        31.09428        -1.96366
O         40.94743        44.60298         1.29165
O         50.92635        32.08911        -0.91838
O         41.14643        39.68379         1.16688
O         39.61333        37.53455         0.91624
O         49.86993        39.76710         3.09018
O         31.68846        39.25454         2.81026
O         37.75207        33.19305        -1.56679
O         41.88413        47.83158        -1.53681
O         36.85886        40.18281        -1.35489
O         35.56796        32.35897         2.33487
O         34.29776        44.66446        -1.48595
O         32.12984        34.50474         3.31818
O         41.15272        24.88000        -2.43481
H         41.90612        25.26714        -2.93294
O         44.57997        46.21928         1.60034
H         43.88499        46.55274         2.20816
O         48.19713        44.34771        -2.10676
H         48.76637        43.54994        -2.23477
O         39.53315        46.68443         1.81896
H         38.74538        46.82854         2.38189
O         33.91306        33.72017        -0.56444
H         33.13322        34.25300        -0.82505
O         39.88900        46.29094        -1.80949
H         39.49323        45.40897        -2.08986
O         37.45282        34.10544         1.96962
H         37.11801        33.47134         2.64892
O         40.86637        27.34048         1.54733
H         40.79731        26.46135         1.97702
O         52.10400        42.27621         0.24248
H         51.71079        42.86076        -0.44326
O         39.91432        28.32906        -1.83303
H         39.76871        29.19277        -2.29275
O         42.23560        42.29173         1.62171
H         41.57117        42.63252         2.26404
O         43.78796        26.55578        -2.89456
H         44.46973        27.16320        -3.26811
O         43.61727        29.59987        -2.35023
H         44.38014        30.02404        -2.80557
O         48.43663        31.42452        -2.12714
H         47.69143        31.70522        -2.70053
O         49.21893        42.30116         2.78154
H         49.38579        41.65911         3.50991
O         43.22128        28.41486         1.06571
H         42.44425        28.00116         1.53109
O         51.89571        35.54391        -0.93818
H         52.04473        36.49630        -1.10924
O         45.44545        44.48344        -2.39619
H         46.38837        44.57532        -2.67541
O         44.11372        30.81216         1.13613
H         43.72600        29.97836         1.49999
O         46.42456        43.96190         1.10031
H         46.02344        44.82151         1.37565
