         268
 CSIRO Nanostructure Databank - Neutral Graphene Oxide Data Set
C        -11.12221         0.82997         0.55604
C         -9.98509         1.68639         0.11338
C         -8.78480         1.01136        -0.48457
C         -7.48479         1.76242        -0.67946
C         -6.23197         1.01422        -1.11338
C         -4.84443         1.65098        -1.27273
C         -3.56363         0.88528        -1.18753
C         -2.27243         1.67513        -0.93695
C         -1.06672         0.82825        -0.61384
C         -0.04749         1.32193         0.37182
C          1.24163         0.57341         0.56194
C          2.45149         1.20506         1.24883
C          3.78043         0.51265         1.18185
C          5.09609         1.23344         1.51880
C          6.41372         0.50965         1.27413
C          7.68033         1.25295         1.05816
C          8.81395         0.59012         0.54305
C          9.90252         1.26604        -0.09668
C         11.10351         0.55063        -0.43852
C         -9.87927         3.09123         0.53029
C         -8.73120         3.84246         0.31486
C         -7.45644         3.11737        -0.00305
C         -5.83728         3.73600        -2.27407
C         -4.76742         3.15842        -1.34360
C         -3.66224         3.93505        -0.63531
C         -2.26388         3.23059        -0.59404
C         -1.41228         3.54065         0.65184
C         -0.13267         2.74670         0.85133
C          1.13780         3.44103         1.24320
C          2.44860         2.70205         1.46422
C          3.74676         3.46766         1.54368
C          5.10385         2.76487         1.83223
C          6.35231         3.47788         1.28218
C          7.67246         2.69903         1.45014
C          8.63200         3.27672        -0.87805
C          9.80489         2.64121        -0.51550
C         -8.73769         5.24110         0.60024
C         -7.63451         6.11046         0.43989
C         -6.34337         5.66355        -0.20508
C         -5.14364         5.79410         0.72217
C         -3.81651         5.20234         0.19236
C         -2.62394         5.77515         0.95187
C         -1.42244         4.92286         1.24334
C         -0.13382         5.67265         1.62445
C          1.19328         4.95455         1.38148
C          2.43439         5.57619         0.78297
C          3.68327         4.74246         0.72925
C          4.90086         5.22195        -0.02403
C          6.26483         4.70799         0.41274
C          7.43895         5.35164        -0.27766
C          8.50151         4.73019        -0.84681
C         -7.61972         7.46120         0.75817
C         -6.31552         8.17650         0.78202
C         -5.07287         7.34476         0.85199
C         -3.77995         7.95077         0.40233
C         -2.59572         7.26547         1.01459
C         -1.36730         8.10286         1.29129
C         -0.15634         7.22366         1.68993
C          1.20187         7.53634        -0.24319
C          2.43167         6.78977         0.16386
C          3.64207         7.40472        -0.45580
C          4.87081         6.59336        -0.66994
C          6.17328         7.24869        -1.14350
C          7.35355         6.86304        -0.23193
C         -6.16526         9.59470         0.34952
C         -4.97720        10.15339         0.03367
C         -3.70940         9.38140         0.01299
C         -2.35879         9.96833        -0.06180
C         -1.20960         9.23646         0.24902
C          0.03604         9.75176        -0.18796
C          1.26305         9.02684        -0.25273
C          2.47985         9.64740        -0.45439
C          3.78074         8.90763        -0.28111
C          4.94109         9.46122        -1.07148
C          6.02812         8.73641        -1.36662
C        -10.99819        -0.50411         0.63955
C         -9.62922        -1.13761         0.52154
C         -8.78423        -0.49671        -0.57808
C         -7.60398        -1.24274        -1.11803
C         -6.27029        -0.50472        -0.98966
C         -4.97273        -1.26723        -0.83700
C         -3.58816        -0.57165        -0.68246
C         -2.36837        -1.36298        -1.20056
C         -1.07888        -0.68033        -0.86986
C          0.09782        -1.48817        -0.37804
C          1.39033        -0.71813        -0.20561
C          2.69220        -1.44523        -0.19382
C          3.96865        -0.70172         0.26539
C          5.03956        -1.61517         0.94424
C          6.36289        -0.89622         0.74503
C          7.62903        -1.66063         0.57751
C          8.91463        -0.90691         0.66469
C         10.10688        -1.65026         0.08053
C         11.19905        -0.81092        -0.43054
C         -9.58757        -2.63685         0.58900
C         -8.56065        -3.36693         0.07295
C         -7.67813        -2.79674        -1.02923
C         -6.31666        -3.48555        -1.16172
C         -5.00850        -2.74396        -1.17901
C         -3.72344        -3.55630        -1.23855
C         -2.40113        -2.86760        -1.31079
C         -1.04296        -3.61580        -1.36112
C          0.12086        -2.96280        -0.62398
C          1.48641        -3.64970        -0.84613
C          2.56932        -2.95294        -0.02901
C          3.75155        -3.71947         0.45249
C          5.05305        -3.00439         0.35630
C          6.30869        -3.76309         0.20499
C          7.63911        -3.17847         0.60947
C          8.76440        -3.76748        -0.22147
C          9.91240        -3.01905        -0.43567
C         -8.50535        -4.81776         0.23459
C         -7.53139        -5.59743        -0.30010
C         -6.33718        -4.98737        -0.94710
C         -5.03916        -5.73303        -0.76640
C         -3.75039        -4.95971        -0.69544
C         -2.45495        -5.67015        -0.43440
C         -1.15003        -5.12496        -0.96706
C          0.11614        -5.91749        -0.74196
C          1.45929        -5.20752        -0.65053
C          2.61812        -5.95086        -0.01780
C          3.81185        -5.21233         0.52867
C          5.11347        -5.94259         0.73584
C          6.45056        -5.21939         0.57537
C          7.42608        -5.87078        -0.39565
C          8.56963        -5.08407        -0.72580
C         -7.57401        -7.11376        -0.21958
C         -6.30116        -7.67352         0.45777
C         -5.04520        -7.14684        -0.23826
C         -3.77175        -7.84793         0.06845
C         -2.47359        -7.10889         0.02855
C         -1.24155        -7.94072         0.14288
C          0.06420        -7.37285        -0.30517
C          1.27112        -8.14441         0.09979
C          2.51888        -7.38942         0.42406
C          3.78339        -8.15360         0.64852
C          5.10424        -7.43389         0.51688
C          6.15107        -8.03344        -0.37770
C          7.21491        -7.14664        -0.89457
C         -6.24527        -9.18774         0.48910
C         -5.09656        -9.83919         0.72218
C         -3.80216        -9.09148         0.96391
C         -2.55431        -9.93344         0.73654
C         -1.36836        -9.41520         0.34842
C         -0.11168       -10.26944         0.18018
C          1.15429        -9.53882         0.71574
C          2.42485       -10.29015         0.40632
C          3.80555        -9.67337         0.48248
C          4.70061       -10.03025        -0.69820
C          5.76475        -9.29354        -1.06542
O         -1.99170         3.76625         1.95979
O          2.72155        -3.24703         1.38005
O          9.88835        -1.45939         1.55579
O          4.01505         4.27581        -0.66894
O         -4.42007        -8.04537        -1.21827
O          6.43162         4.81636         1.86465
O          2.97548        -7.69156         1.78193
O         -4.71406         3.53439        -2.81551
O         -3.11385        -3.31792        -2.52848
O         -5.77095        -0.93114         0.34830
O         -1.75303        -7.19431         1.31339
O          0.82127        -8.16796        -1.28174
O          0.24691         2.85357         2.23874
O         -7.10594         1.63519        -2.08955
O         -5.72707        -3.04818        -2.41245
O          2.93122         0.36812         2.34317
O         -1.18689         1.49605        -1.89247
O          5.81110         0.56593         2.61023
O         -3.02203         6.48084         2.17205
O         -3.55804         5.26461        -1.22696
O         -9.80139         1.57936        -1.36620
O          2.19906        -0.80688        -1.40811
O          0.11650         0.40107         1.48281
O          4.28904        -5.56727         1.86408
O         -5.72075        -5.70537        -2.05833
O          7.73370        -3.71887         1.97051
O          7.12072        -5.09379         1.89051
O         -4.19105         1.06649        -2.46591
O         -6.25453         5.66974        -1.42540
O         -3.73288         8.24533        -1.00945
O          6.91051        -1.10304        -0.58338
O          0.22660         6.93435        -0.69643
O          0.72946         5.27143         2.72367
O          2.49810        -5.83715        -1.46549
O         -5.59654         7.89042         2.07824
O          2.92830         3.29083         2.72088
O         -8.69276        -0.83515        -1.98154
O         -0.56562        -5.89716        -2.04456
O         -1.51765        -0.86352        -2.25401
O          8.64163         3.25852         1.93074
O         -8.44288        -3.27809        -2.10239
O         -3.11427        -4.89482         0.62669
O         -6.39754         3.51499         0.47255
O          3.89246         6.78429        -1.75247
O          5.64308        -3.27406        -0.97420
O         -0.19010        -2.45454         0.69068
O         -1.65225         8.84052         2.50792
O          6.21007        -8.14759         1.11101
O          4.12135         9.05113         1.13539
H          4.29775         9.99727         1.31945
O          7.50921         2.57278        -1.19090
H          6.84394         3.16228        -1.60091
O         -3.31890        -0.50554         0.73643
H         -4.18093        -0.48404         1.21667
O          6.47735         6.65570        -2.42828
H          5.66159         6.72703        -2.97318
O         -0.24726       -11.50228         0.86799
H         -0.11122       -11.31406         1.82208
O          0.98502        -9.46076         2.15459
H          1.72037        -8.90033         2.50541
O         -6.27049        -7.17077         1.81258
H         -5.53589        -7.63624         2.28615
O          4.41035       -10.24733         1.67171
H          4.10878        -9.72469         2.44519
O         -8.89287        -0.68178         1.72258
H         -9.28635        -1.12506         2.50420
O         -7.68946        -7.66109        -1.53177
H         -7.02476        -7.21689        -2.10886
O         -0.64604        -3.56627        -2.73950
H         -1.44249        -3.74145        -3.29371
O         -5.44052         5.24710         2.00066
H         -4.81233         5.64310         2.64713
O         -3.82495        -8.63490         2.34478
H         -2.99772        -8.11168         2.48357
O          0.75146         7.77757         2.28828
H         -0.79330         8.99428         2.96305
O          4.55115        -0.11757        -0.91304
H          4.70710        -0.82093        -1.58018
O          4.76241        -1.83271         2.32281
H          4.89140        -0.99422         2.82924
O         -1.47642         3.86102        -1.61631
H         -1.96191         3.81532        -2.46743
O          5.31536         2.87706         3.24334
H          4.46877         2.66409         3.69807
O          7.09248         7.34261         1.07965
H          7.34774         6.66283         1.74034
O          1.90082        -3.41252        -2.19383
H          1.16363        -3.66657        -2.80080
H         12.08182        -1.30205        -0.86583
H         11.93238         1.13745        -0.86168
H         10.71727         3.25477        -0.47924
H          9.35864         5.34098        -1.17253
H          8.30362         7.31100        -0.63909
H          6.87010         9.21455        -1.89144
H          4.91984        10.53526        -1.31628
H          2.51982        10.74756        -0.51510
H          0.04288        10.78850        -0.56425
H         -2.24279        10.90369        -0.63460
H         -4.93341        11.21714        -0.24555
H         -7.07854        10.20777         0.30559
H         -8.53023         7.98435         1.09413
H         -9.67705         5.66588         0.99243
H        -10.77300         3.58237         0.94752
H        -12.09586         1.31901         0.71263
H        -11.86288        -1.13359         0.89887
H        -10.31028        -3.12575         1.26367
H         -9.33494        -5.29483         0.78067
H         -8.47072        -7.43218         0.36807
H         -7.17920        -9.74620         0.32641
H         -5.07653       -10.93905         0.76163
H         -2.61260       -11.01461         0.94147
H          0.02932       -10.49255        -0.90864
H          2.39241       -11.38426         0.54213
H          4.47633       -10.96148        -1.23887
H          6.38450        -9.61569        -1.91639
H          7.92621        -7.56286        -1.62432
H          9.35318        -5.53104        -1.35622
H         10.71329        -3.43652        -1.06588
