         261
 CSIRO Nanostructure Databank - Neutral Graphene Oxide Data Set
C        -11.03346         0.73452        -1.03325
C        -10.14152         1.47509        -0.11105
C         -8.97514         0.72421         0.48690
C         -7.67569         1.48037         0.65268
C         -6.39319         0.71376         0.60809
C         -5.11172         1.40679         0.19991
C         -3.81392         0.73570         0.55432
C         -2.69600         1.61159         1.11166
C         -1.31187         0.90660         1.27257
C         -0.02420         1.61600         0.93522
C          1.30799         0.87329         1.08317
C          2.58573         1.58021         0.65911
C          3.79352         0.72899         0.34310
C          4.96835         1.35523        -0.35196
C          6.28916         0.65230        -0.41487
C          7.55809         1.42406        -0.30904
C          8.80680         0.66396         0.01162
C         10.08889         1.42269        -0.17952
C         11.27083         0.59954        -0.55432
C        -10.08939         2.95384        -0.20255
C         -8.93515         3.67487         0.04474
C         -7.62594         2.89993        -0.00880
C         -6.36250         3.68402         0.49274
C         -5.10280         2.90983         0.27701
C         -3.83288         3.51147        -0.30073
C         -2.60924         3.02552         0.47052
C         -1.33145         3.67208         0.05528
C         -0.06115         2.86296         0.08240
C          1.20884         3.53325        -0.33242
C          2.53622         2.93825         0.03610
C          3.71530         3.55391        -0.67683
C          5.03505         2.83456        -0.64152
C          6.31652         3.60254        -0.49515
C          7.55920         2.90846         0.11896
C          8.85595         3.59661        -0.31292
C          9.99865         2.88359        -0.46512
C         -8.91797         5.09620         0.01488
C         -7.72804         5.86386         0.00431
C         -6.38997         5.26008         0.42069
C         -5.22649         5.77319        -0.45649
C         -3.94903         5.01214        -0.57225
C         -2.65116         5.72645        -0.85708
C         -1.36668         4.97127        -0.73633
C         -0.07718         5.75672        -0.76641
C          1.20769         5.01162        -0.64823
C          2.46818         5.77516        -0.36110
C          3.71572         5.04459        -0.76751
C          4.99233         5.80867        -0.56809
C          6.28799         5.10074        -0.32994
C          7.57042         5.85413        -0.48023
C          8.89923         5.12259        -0.28956
C         -7.73104         7.25006        -0.09693
C         -6.48461         8.03026        -0.31203
C         -5.21674         7.27712        -0.61515
C         -3.88753         7.99174        -0.60778
C         -2.64121         7.17964        -0.41465
C         -1.36672         7.88063        -0.04481
C         -0.10390         7.26269        -0.57878
C          1.17608         8.03265        -0.51361
C          2.46202         7.26594        -0.39704
C          3.69409         8.01578        -0.80599
C          4.98864         7.25717        -0.96114
C          6.29845         7.98802        -0.87531
C          7.54465         7.20236        -0.61999
C         -6.33273         9.44421         0.10334
C         -5.14922        10.09666         0.10161
C         -3.84948         9.48222        -0.27010
C         -2.60178        10.11131         0.13624
C         -1.32942         9.35065         0.42939
C         -0.00849        10.07173         0.18102
C          1.17075         9.44958        -0.04370
C          2.50838        10.18319         0.10715
C          3.71705         9.49607        -0.53653
C          5.06285        10.09849        -0.34298
C          6.22221         9.42454        -0.51309
C        -10.86033        -0.56560        -1.34864
C         -9.88296        -1.43951        -0.66056
C         -8.92301        -0.79011         0.31440
C         -7.66334        -1.52609         0.80085
C         -6.39688        -0.77739         0.39158
C         -5.05432        -1.43885         0.41393
C         -3.96184        -0.66005         1.16082
C         -2.59506        -1.38519         1.38903
C         -1.30167        -0.60457         1.54854
C          0.03235        -1.38151         1.54975
C          1.32824        -0.59726         1.41635
C          2.65480        -1.36691         1.36898
C          3.92420        -0.63402         0.99103
C          5.21140        -1.39484         0.73582
C          6.35848        -0.79261        -0.01742
C          7.55725        -1.57625        -0.53694
C          8.83478        -0.81627        -0.29948
C         10.11478        -1.50352         0.15776
C         11.28841        -0.74457        -0.44233
C         -9.54360        -2.75877        -1.21445
C         -8.54414        -3.55177        -0.67212
C         -7.65070        -3.06089         0.45309
C         -6.27773        -3.66059         0.23826
C         -5.00539        -2.93299         0.40554
C         -3.80292        -3.67192         0.89285
C         -2.56116        -2.90623         1.25770
C         -1.23748        -3.60396         1.04074
C          0.04466        -2.88288         1.39069
C          1.31869        -3.52745         0.81538
C          2.60640        -2.89130         1.36885
C          3.89004        -3.63445         1.16348
C          5.09632        -2.89079         0.65749
C          6.29065        -3.64411         0.14481
C          7.54702        -3.09638        -0.48344
C          8.87219        -3.70667        -0.04967
C         10.05602        -2.99550        -0.03952
C         -8.34359        -4.90647        -1.04466
C         -7.38074        -5.74749        -0.40156
C         -6.44573        -5.10399         0.61057
C         -5.13241        -5.86478         0.83656
C         -3.78720        -5.14581         0.47776
C         -2.54715        -5.84369         1.02999
C         -1.22788        -5.10274         0.93287
C          0.06727        -5.82642         1.39969
C          1.31428        -5.09855         0.83238
C          2.61867        -5.85316         0.78890
C          3.93878        -5.12915         0.89566
C          5.19348        -5.85404         0.45636
C          6.38642        -5.12473        -0.13541
C          7.69267        -5.88018         0.02643
C          8.88735        -5.12710         0.06466
C         -7.33000        -7.10382        -0.59898
C         -6.41646        -8.05390         0.16517
C         -5.13831        -7.35732         0.67294
C         -3.80911        -8.07095         0.53043
C         -2.55178        -7.32992         0.91714
C         -1.24170        -8.06877         0.78737
C          0.04830        -7.35275         1.09454
C          1.35551        -8.09453         0.86749
C          2.65625        -7.35909         0.91091
C          3.89877        -8.08630         0.43696
C          5.19883        -7.35640         0.34849
C          6.43401        -8.04071        -0.18246
C          7.67157        -7.23437        -0.29525
C         -6.14296        -9.21810        -0.76686
C         -4.93455        -9.71004        -1.06527
C         -3.70497        -9.25784        -0.36566
C         -2.36861        -9.63741        -0.97902
C         -1.16605        -9.24161        -0.13323
C         -0.00218        -9.87941        -0.35164
C          1.31714        -9.54358         0.29439
C          2.42812        -9.77843        -0.71220
C          3.77830        -9.40073        -0.37379
C          4.97090        -9.80959        -1.15427
C          6.19422        -9.25613        -0.99546
O          5.16209        -3.20416        -0.75413
O         -6.17526         5.78303         1.67281
O         -2.09778         7.11083         0.96154
O         -3.42923        -3.50031         2.27938
O         -4.91521         5.13261        -1.70129
O          1.83916        -5.56672        -0.44314
O          0.68404         5.36098        -1.95160
O         -6.94803         1.21978         1.86149
O          2.81582         2.77932         1.46009
O          6.34993        -0.88864         1.47034
O         -2.08907        -0.97363         2.69920
O          5.88363         3.16474        -1.79260
O         -4.23777         0.83412        -0.81140
O         -5.23600        -6.72948         1.99037
O          3.54356        -0.79495         2.37032
O         -1.11985        -4.28208        -0.25911
O        -10.09777        -1.45832         0.81838
O          2.12932        -7.97139         2.11221
O         -5.69458        -1.03556        -0.84294
O         -1.94540         3.95120         1.36440
O         -0.63098        -8.16578         2.10799
O         -2.02043         5.16306        -2.03180
O          6.12417        -8.02936         1.26790
O         -2.67975        -6.64336         2.21180
O          8.33687        -1.06898        -1.64446
O         -5.48004        -3.41958        -0.93258
O         -0.60661         1.73322         2.25469
O         -7.38390         2.66294        -1.34372
O          3.44212         8.97571        -1.86854
O          4.91498        -5.60647         1.87264
O          5.48806         5.57911         0.79776
O          7.33208        -3.74231        -1.84468
O          7.04498         1.04654        -1.60018
O         -3.76802         8.94196        -1.67974
O         -6.04697         7.74552        -1.70728
O         -5.59104         3.27256         1.60969
O          3.48057         4.22484        -1.94368
O          4.03358        -9.35779         1.08702
O          3.32952        -3.43970         2.49282
O          0.42402         7.92473        -1.76548
O          0.47192         2.67975        -1.26112
O         -8.08932        -3.79537         1.66646
O          0.12512        -2.30240         2.69362
O          1.41955         0.41057         2.45452
O          5.70071         7.59888        -2.17510
O         -3.79900        -9.42831         1.08542
O          9.53494         1.09648         1.17345
O          3.94330         0.62868        -1.11414
O          6.43794        -4.97128        -1.63868
O         -7.18509        -4.97006         1.87079
O          7.40164         2.94959         1.49108
O          2.55680         6.53222         0.87672
O        -10.08997         1.10443         1.32835
O         10.20205        -1.39875         1.60441
H         10.11561        -0.43721         1.83813
O         -4.55441        -0.51316         2.45988
H         -3.92713        -0.00998         3.03131
O          9.86786         5.61858        -1.21463
H          9.54173         5.45959        -2.12404
O          1.32448        -3.09071        -0.56392
H          1.52209        -3.86825        -1.13880
O          1.53279       -10.46822         1.38038
H          2.23476       -10.07653         1.95360
O         -3.60315         2.96567        -1.61528
H         -4.29637         3.31375        -2.22042
O          2.80226        10.31143         1.50113
H          2.00694        10.64089         1.96755
O         -1.37705         9.32430         1.89639
H         -1.90528         8.52995         2.15557
O          0.14868        -5.66564         2.81557
H         -0.38472        -6.38047         3.23459
O         -7.16051        -8.53404         1.30273
H         -6.94403        -7.94503         2.06108
O         -3.14165         1.83848         2.46320
H         -2.46054         2.39597         2.90600
O         -7.67019        -1.40718         2.22640
H         -8.54018        -1.71811         2.55769
O         -3.64831        -5.28179        -0.95147
H         -4.25838        -4.63068        -1.38428
O         -2.34587       -11.03672        -1.25799
H         -2.47556       -11.51441        -0.41204
H         12.19204        -1.30460        -0.72688
H         12.14666         1.12645        -0.96355
H         10.93223         3.41174        -0.71943
H          9.27154         5.40031         0.73550
H          8.49919         7.75226        -0.64553
H          7.17298         9.93971        -0.30569
H          5.09774        11.14467        -0.00301
H          2.39917        11.21387        -0.34477
H         -0.00597        11.13683         0.46585
H         -2.68324        11.08711         0.64308
H         -5.11485        11.13790         0.45702
H         -7.23322         9.97029         0.45444
H         -8.68577         7.78358        -0.24780
H         -9.88452         5.62855         0.00276
H        -11.03419         3.48213        -0.41342
H        -11.78415         1.32502        -1.58015
H        -11.49425        -1.02806        -2.12012
H        -10.15302        -3.14882        -2.04404
H         -9.00779        -5.35444        -1.79934
H         -8.07123        -7.56648        -1.27012
H         -7.03184        -9.64408        -1.25709
H         -4.82743       -10.53714        -1.78308
H         -2.28222        -9.11037        -1.97056
H         -0.00622       -10.73162        -1.05012
H          2.24726       -10.41909        -1.58806
H          4.84524       -10.64903        -1.85432
H          7.03586        -9.63395        -1.59510
H          8.62124        -7.76850        -0.45133
H          9.85026        -5.64738         0.17406
H         10.98806        -3.55393         0.14523
