         720
 CSIRO Nanostructure Databank - Neutral Graphene Oxide Data Set
C         23.34160        27.85473        -3.39828
C         23.22499        29.10911        -2.92392
C         23.10963        31.93279        -1.94136
C         23.04087        33.24886        -1.49509
C         22.99165        36.08904        -0.78892
C         22.96822        37.45019        -0.46060
C         23.63736        40.34691        -0.99370
C         23.79070        41.71180        -1.04376
C         23.41170        44.60833        -0.72263
C         23.35562        45.95979        -0.75330
C         26.11052        25.59488        -4.61110
C         24.83552        26.11049        -4.39641
C         25.77365        27.81744        -2.94164
C         24.65945        27.24539        -3.58514
C         25.51842        28.98173        -2.00682
C         24.48201        29.90896        -2.64422
C         25.45323        31.82271        -1.32554
C         24.30612        31.20414        -1.87681
C         25.40852        33.19889        -1.00368
C         24.20509        33.92848        -1.08136
C         25.38063        36.02311        -0.32617
C         24.18110        35.35781        -0.73783
C         25.35696        37.41267         0.02854
C         24.12395        38.11441        -0.06515
C         25.29575        40.20492         0.73745
C         24.00629        39.57856         0.25957
C         25.18484        41.68154         1.07571
C         24.47044        42.44109        -0.04364
C         25.47004        44.57644         0.63775
C         24.44996        43.87666        -0.00686
C         25.51103        46.04871         0.58731
C         24.37170        46.77453        -0.06881
C         25.81746        48.70286        -0.54435
C         24.58180        48.19604        -0.45367
C         28.86089        24.49585        -5.07437
C         28.60781        25.71537        -4.31201
C         27.23719        26.18180        -4.00905
C         28.16693        27.76804        -2.30379
C         27.06267        27.28088        -3.12673
C         27.95035        28.95362        -1.47786
C         26.77752        29.68201        -1.55797
C         27.80002        31.68394        -0.55659
C         26.70071        31.06272        -1.11490
C         27.71457        33.09023        -0.01727
C         26.72032        33.91897        -0.81920
C         27.78748        35.95343         0.14325
C         26.61445        35.31912        -0.26806
C         27.77654        37.34666         0.51813
C         26.54427        38.07914         0.47015
C         27.66662        40.12629         1.43811
C         26.47040        39.49740         0.80728
C         27.77261        41.61184         1.54360
C         26.50560        42.37396         1.46194
C         27.92086        44.50632         1.23404
C         26.58350        43.87159         1.31633
C         28.02241        45.79671         0.78242
C         26.86098        46.76750         0.71195
C         28.36575        48.59435        -0.36814
C         27.03497        47.79544        -0.46884
C         28.50052        49.72692        -1.39236
C         31.19994        24.51038        -4.34511
C         30.13959        24.05083        -5.20481
C         30.99753        25.37487        -3.28867
C         29.75890        26.17921        -3.35668
C         30.38101        27.40513        -1.20536
C         29.38976        27.13006        -2.30060
C         30.39812        28.84404        -0.77931
C         29.08235        29.47493        -0.69376
C         30.30246        31.62825        -0.06036
C         29.01601        30.92722        -0.22359
C         30.27242        33.08558        -0.02363
C         29.04856        33.80496         0.01850
C         30.26753        35.90931         0.32293
C         29.04294        35.20928         0.15595
C         30.26488        37.29861         0.70031
C         29.00278        37.96994         0.87553
C         30.21513        39.99408         1.84482
C         28.93519        39.31475         1.47224
C         30.20151        41.48774         2.12125
C         28.96960        42.27031         1.78532
C         30.34564        44.36670         1.68792
C         29.10080        43.71134         1.59364
C         30.48825        45.70649         1.12673
C         29.36647        46.20102         0.25086
C         30.81568        47.94243        -0.55439
C         29.53403        47.62267        -0.24025
C         30.91256        50.13245        -1.08908
C         29.56717        50.55077        -1.50954
C         34.42111        21.06948        -3.91802
C         33.51008        21.92644        -4.52400
C         33.67274        23.49507        -2.63271
C         33.15939        23.12657        -3.88912
C         33.17371        24.68116        -1.85324
C         31.91566        25.52521        -2.10555
C         32.75647        27.36129        -0.56967
C         31.75623        26.84279        -1.40317
C         32.74770        28.71742        -0.05921
C         31.53261        29.46122        -0.23636
C         32.76662        31.60080         0.09449
C         31.49235        30.90339         0.02798
C         32.72844        33.02963        -0.28428
C         31.48256        33.80090        -0.07879
C         32.73806        35.92628         0.18027
C         31.50565        35.21417         0.13425
C         32.75697        37.29179         0.61369
C         31.50804        37.93799         0.93921
C         32.82496        40.00643         1.85420
C         31.50652        39.26160         1.61179
C         32.74278        41.54251         1.63915
C         31.51506        42.20769         2.23827
C         32.81286        44.29574         1.95643
C         31.57156        43.67373         2.00602
C         32.83629        45.76184         1.85740
C         31.69888        46.34201         1.12621
C         33.13403        48.42167         0.44810
C         31.97649        47.46382         0.20683
C         33.23616        49.90765        -0.11062
C         31.91511        50.69752        -0.35319
C         32.91118        52.86997         0.25234
C         31.85354        52.13593        -0.14669
C         36.10816        19.08649        -2.36931
C         36.23199        20.59552        -2.27915
C         35.02733        21.42458        -2.70956
C         35.54101        23.14556        -0.99293
C         34.67549        22.64782        -2.05852
C         35.29993        24.45585        -0.27052
C         34.12801        25.24388        -0.85511
C         35.44330        27.46955         0.56363
C         33.75929        26.37971        -0.20719
C         35.26886        28.80886         0.50740
C         33.90454        29.45746         0.67503
C         35.23789        31.68556         0.18890
C         33.97658        30.94242         0.25677
C         35.25843        33.08800        -0.08211
C         34.01091        33.78137        -0.46922
C         35.24928        36.02928        -0.32666
C         33.91725        35.31586        -0.56948
C         35.23859        37.45214         0.19329
C         33.99308        37.98746         0.75813
C         35.30296        40.02115         1.65463
C         34.01284        39.47303         1.02891
C         35.31445        41.44956         2.13960
C         34.05855        42.22509         2.03111
C         35.35684        44.36594         2.05536
C         34.08836        43.60384         2.05648
C         35.38780        45.78812         2.02421
C         34.10187        46.53823         1.97522
C         35.39274        48.73220         1.72070
C         34.10988        47.98997         1.53489
C         35.53978        50.07296         1.08697
C         34.21700        50.71565         0.75120
C         35.38757        52.99574         0.84635
C         34.11277        52.20499         0.80544
C         35.38692        54.41537         1.19789
C         37.75915        18.75308        -0.59682
C         36.88468        18.24172        -1.63560
C         37.43145        20.08470        -0.19435
C         36.73552        21.01034        -0.93231
C         37.90652        23.14968        -0.21489
C         36.61715        22.40734        -0.54160
C         37.80437        24.63319         0.06260
C         36.60924        25.27630        -0.08000
C         37.85048        27.51498         0.25050
C         36.58793        26.79115        -0.13228
C         37.79969        28.85186         0.51212
C         36.51343        29.58806         0.82798
C         37.72081        31.69177         0.46793
C         36.49932        31.02057         0.39651
C         37.69967        33.15997         0.42847
C         36.45425        33.85704         0.03266
C         37.71472        35.99816         0.07859
C         36.48547        35.26058        -0.08371
C         37.80206        37.36476         0.32845
C         36.55206        38.13858         0.46997
C         37.85884        39.99348         1.70733
C         36.57970        39.47136         1.12497
C         37.90770        41.44979         2.08699
C         36.61750        42.21028         2.24846
C         37.82646        44.37945         2.00800
C         36.59793        43.68470         2.06458
C         37.84508        45.80082         1.96254
C         36.60753        46.49353         2.00481
C         37.90425        48.68355         1.90094
C         36.61407        47.98944         2.29325
C         37.85817        50.18448         2.03806
C         36.67747        50.78880         1.27519
C         37.87995        53.03898         1.40805
C         36.71455        52.24790         0.99856
C         37.84103        54.42449         1.29906
C         36.55952        55.09627         1.28633
C         40.19681        16.01669         0.34962
C         39.03680        16.69581        -0.04996
C         40.15355        18.90331         0.27264
C         38.90970        18.09717        -0.04513
C         40.21086        20.34411         0.72966
C         38.98987        21.16348         0.93263
C         40.26345        23.20126         0.61973
C         38.96624        22.48459         0.62781
C         40.24134        24.68498         0.64158
C         39.08049        25.33793         0.29302
C         40.33710        27.52303         0.57129
C         39.15079        26.81405        -0.03050
C         40.26038        28.90290         0.79313
C         39.03092        29.60774         0.66969
C         40.23841        31.75200         0.77335
C         38.97877        31.02101         0.66918
C         40.29833        33.14311         0.36572
C         39.01425        33.86764         0.27851
C         40.26688        36.02873        -0.21818
C         38.97293        35.27645        -0.17369
C         40.28589        37.42465         0.24286
C         39.06861        38.03964         0.51177
C         40.37973        40.08742         1.30347
C         39.10888        39.33082         1.24731
C         40.36018        41.52314         1.59989
C         39.17075        42.18415         1.84799
C         40.40179        44.42731         1.92289
C         39.11349        43.64136         2.11580
C         40.28991        45.86035         1.60318
C         39.09865        46.53360         1.75714
C         40.35306        48.72041         1.52780
C         39.06883        48.00436         1.66774
C         40.36856        50.19748         1.60327
C         39.16161        50.87528         1.72299
C         40.41963        53.12171         1.71078
C         39.11533        52.34301         1.79561
C         40.33907        54.53502         1.28132
C         39.08082        55.18505         1.18256
C         40.21580        57.20401         0.44101
C         39.04888        56.53692         0.77539
C         42.59106        15.99797         0.99587
C         41.40769        16.67748         0.61881
C         42.70586        18.85130         0.97716
C         41.46165        18.14516         0.45211
C         42.62339        20.28217         1.34764
C         41.46657        20.97930         1.18986
C         42.64070        23.23424         1.53782
C         41.47823        22.45969         1.04281
C         42.68915        24.67535         1.20008
C         41.51825        25.37292         0.86726
C         42.77248        27.49773         1.09438
C         41.54098        26.80788         0.82928
C         42.79240        29.01404         0.90068
C         41.45123        29.61008         1.39047
C         42.59270        31.87186         1.52055
C         41.40282        31.09825         1.16362
C         42.67974        33.28827         0.91606
C         41.49895        33.80929         0.19358
C         42.83992        35.97792        -0.20644
C         41.53973        35.23258        -0.24446
C         42.76058        37.35527         0.38112
C         41.56380        38.03316         0.60374
C         42.79599        40.09223         1.70158
C         41.56120        39.40257         1.12759
C         42.84134        41.57053         1.38636
C         41.62004        42.26753         1.50017
C         42.84343        44.39262         1.44005
C         41.63834        43.68591         1.56663
C         42.83210        45.88914         1.70835
C         41.53440        46.55170         1.10413
C         42.85141        48.73080         1.62649
C         41.52488        48.02887         1.38532
C         42.80255        50.12039         0.97109
C         41.59878        50.91831         1.41386
C         42.83636        53.05799         1.18275
C         41.66045        52.34520         1.42445
C         42.84714        54.57414         1.36379
C         41.52713        55.22485         0.99314
C         42.67547        57.27158         0.17364
C         41.46465        56.56025         0.54353
C         43.77775        16.64798         1.32403
C         45.10702        18.73676         1.67006
C         43.89380        18.06076         1.40277
C         45.12168        20.19426         1.96160
C         43.83902        20.96338         1.85771
C         45.21077        23.12876         1.51282
C         43.88318        22.46992         1.83589
C         45.12632        24.62854         1.70672
C         43.94158        25.34714         1.45595
C         45.22858        27.54524         1.41831
C         43.92568        26.79247         1.39687
C         45.09460        28.94831         1.97797
C         43.92245        29.70276         1.62213
C         45.13790        31.85149         1.62146
C         43.84979        31.15492         2.03359
C         45.14371        33.19213         1.18395
C         43.99624        33.91067         0.77480
C         45.41175        35.91375         0.04523
C         44.13227        35.09723        -0.19148
C         45.28987        37.43511         0.23930
C         44.02254        37.94579         0.87525
C         45.36877        40.10157         1.30715
C         44.08394        39.34371         1.42491
C         45.33838        41.56153         1.24752
C         44.06596        42.26848         1.27058
C         45.29875        44.43242         1.00595
C         44.06323        43.69759         1.23106
C         45.28155        45.83560         0.93384
C         44.06890        46.59494         1.17407
C         45.38421        48.71621         1.24110
C         44.07750        47.96342         1.16879
C         45.28678        50.18141         0.82593
C         44.12445        50.85959         1.00831
C         45.22383        53.00020         0.36647
C         44.17900        52.36155         1.25917
C         45.18037        54.45801         0.13643
C         44.04874        55.27816         0.70425
C         43.87687        56.66496         0.21066
C         47.54168        18.80446         1.82668
C         46.37324        18.08660         1.72256
C         47.57418        20.24468         1.89096
C         46.40135        20.94750         1.97809
C         47.67393        23.16009         2.00786
C         46.36782        22.43842         2.30059
C         47.64694        24.55058         2.02540
C         46.36934        25.30478         2.13242
C         47.67323        27.55271         1.92883
C         46.39231        26.82027         2.08147
C         47.67609        28.91855         1.82030
C         46.45535        29.69253         2.16047
C         47.74517        31.85099         1.64790
C         46.43212        31.18558         1.97339
C         47.61184        33.02375         0.69758
C         46.42728        33.87923         1.04329
C         47.55369        35.86034         0.06792
C         46.46251        35.22769         0.88188
C         47.74125        37.31058         0.36876
C         46.53422        37.89113         1.05031
C         47.84956        40.05269         1.16458
C         46.53771        39.39131         1.15385
C         47.81458        41.58890         1.15942
C         46.52476        42.28515         1.09488
C         47.75577        44.40222         0.59234
C         46.55272        43.71724         0.89035
C         47.69616        45.80178         0.29900
C         46.48727        46.55382         0.59317
C         47.75536        48.64341         0.25403
C         46.53143        47.94451         0.64707
C         47.76948        50.17816         0.13880
C         46.58637        50.97881         0.70754
C         47.32751        52.86448        -0.89285
C         46.33869        52.29206        -0.00296
C         47.08349        54.20463        -1.38485
C         46.07795        54.97635        -0.90733
C         49.97813        20.27808         1.14433
C         48.92039        20.93558         1.99434
C         50.11865        23.09353         1.50294
C         48.88290        22.43732         1.77233
C         50.16812        24.58843         1.46369
C         48.87987        25.31029         1.73013
C         50.24083        27.46968         1.81469
C         48.93633        26.77484         2.02177
C         50.16871        28.83941         1.18840
C         48.83930        29.62441         1.13977
C         50.21341        31.75571         0.96360
C         49.06120        31.05597         1.68463
C         50.11930        33.06422         0.51089
C         48.87820        33.79670         0.42946
C         49.99854        35.81867        -0.53426
C         48.81140        35.08516        -0.05333
C         50.06916        37.33896        -0.43910
C         48.89256        38.00590         0.15752
C         50.23805        40.05828         0.45532
C         49.03008        39.37441         0.58913
C         50.18569        41.44848         0.85149
C         49.06901        42.25509         0.80919
C         50.18423        44.32780        -0.23871
C         49.15407        43.77647         0.77959
C         49.96528        45.71242        -0.75733
C         48.78455        46.47729        -0.29518
C         49.70748        48.56099        -1.29583
C         48.76094        47.87841        -0.50175
C         49.60360        49.94774        -1.54627
C         48.62682        50.74809        -0.91740
C         49.42611        52.70442        -2.21069
C         48.42794        52.11281        -1.33366
C         51.11895        20.94893         0.83876
C         52.62445        22.96743         1.16944
C         51.25264        22.34957         1.11310
C         52.64532        24.49212         1.03377
C         51.48214        25.31761         1.56350
C         52.73400        27.54923         1.63746
C         51.52055        26.69564         1.63958
C         52.71295        28.89230         1.34392
C         51.45566        29.58108         1.00843
C         52.68970        31.69413         0.62398
C         51.47222        31.05737         0.89095
C         52.69108        33.14091         0.36125
C         51.35522        33.80784         0.22035
C         52.54648        35.80862        -0.79496
C         51.27816        35.05833        -0.58578
C         52.52871        37.28317        -0.73176
C         51.38547        38.02206        -0.42789
C         52.57344        40.15776        -0.65638
C         51.44332        39.46314        -0.16541
C         52.74672        41.59890        -0.74813
C         51.90497        42.47266        -0.03440
C         52.46736        44.35274        -1.37374
C         51.56411        43.75993        -0.45890
C         52.40615        45.82106        -1.53946
C         51.16820        46.58905        -1.07792
C         51.94178        48.54470        -2.50402
C         50.74800        47.73268        -2.02999
C         51.83534        49.88665        -2.75399
C         50.43312        50.48593        -2.70004
C         50.39231        51.97926        -2.80632
C         54.83779        23.18991         0.02370
C         53.70123        22.47070         0.19959
C         55.11127        24.38848         0.82965
C         54.02909        24.85101         1.51607
C         55.21259        27.44319         1.34752
C         54.05492        26.97905         1.89123
C         55.15826        28.81058         0.77547
C         54.02111        29.66796         1.30733
C         55.14070        31.68765         0.25371
C         53.95805        31.02168         0.62217
C         55.11995        33.07017        -0.20722
C         53.89218        33.77137        -0.22660
C         55.01062        35.78353        -1.04641
C         53.84634        35.12101        -0.59744
C         54.92631        37.20560        -1.30889
C         53.77911        37.92918        -1.00130
C         54.84839        40.06249        -1.89323
C         53.65316        39.37128        -1.31681
C         54.85476        41.52686        -2.04956
C         53.67792        42.24158        -1.62612
C         54.49582        44.19479        -2.94812
C         53.56596        43.62915        -1.88240
C         54.53480        45.70190        -3.00360
C         53.41631        46.46542        -2.41546
C         54.36882        48.59386        -3.45096
C         53.14164        47.82179        -2.95240
C         54.22858        50.05411        -3.36874
C         53.01847        50.63653        -3.13067
C         57.69608        24.50452         0.82665
C         56.37656        25.21566         0.58704
C         57.71178        27.36779         0.92118
C         56.46771        26.57291         1.37797
C         57.69753        28.82450         0.57722
C         56.40201        29.52086         0.37660
C         57.60162        31.60665        -0.15816
C         56.41908        30.99434         0.21153
C         57.64450        33.12109        -0.27673
C         56.29977        33.73167        -0.64593
C         57.41064        35.67777        -1.79019
C         56.22824        35.05251        -1.13380
C         57.36719        37.14174        -2.13533
C         56.08852        37.89676        -1.91375
C         57.31824        40.04239        -2.44926
C         56.19085        39.38779        -1.69186
C         57.21486        41.41227        -2.79767
C         55.96623        42.15243        -2.58616
C         56.95845        44.22579        -3.45252
C         55.88194        43.56082        -2.93566
C         56.89295        45.68066        -3.72730
C         55.64241        46.41902        -3.43719
C         56.89841        48.54157        -3.28886
C         55.66309        47.86267        -3.42942
C         58.86458        25.16058         0.73688
C         60.15783        27.39449         0.48014
C         58.88795        26.60574         0.29281
C         60.14645        28.73820         0.23233
C         58.92106        29.47477         0.05986
C         59.98351        31.52065        -0.80461
C         58.85243        30.85251        -0.29331
C         59.93931        32.87081        -1.22529
C         58.82403        33.65601        -1.05589
C         59.93539        35.89692        -1.72434
C         58.75654        35.01728        -1.65720
C         59.84484        37.24031        -2.03598
C         58.61841        37.91204        -2.26361
C         59.62763        40.01062        -3.19837
C         58.52957        39.31681        -2.63039
C         59.52157        41.35164        -3.55177
C         58.33434        42.07718        -3.34918
C         59.43007        44.34258        -3.20346
C         58.27585        43.53219        -3.77789
C         59.39967        45.68458        -3.16014
C         58.20786        46.46191        -3.57088
C         58.10881        47.88180        -3.23787
O         37.37854        41.77285         3.41801
O         38.53832        39.10820         2.62729
O         28.02834        39.38941         2.64794
O         44.12525        38.15908         2.32625
O         33.73009        51.37452         1.96381
O         36.21309        52.65596        -0.32078
O         58.00890        28.34304         1.96299
O         26.29170        43.26088         2.62694
O         46.46346        35.81982        -1.06181
O         42.31282        33.04251         2.34507
O         43.07812        23.00590         2.92689
O         49.71899        27.28004         3.16877
O         35.34547        40.30365         3.05779
O         40.30471        19.98253        -0.70750
O         53.84866        39.49741        -2.79474
O         39.91161        44.07874         3.25940
O         30.83047        41.78024         3.42969
O         49.35182        25.09288         0.32461
O         30.79064        39.18533         2.91059
O         42.48403        18.61753        -0.47203
O         48.44278        49.50683         1.24193
O         48.03762        40.80789         2.40058
O         33.22077        46.39479         3.14519
O         49.63545        44.56421        -1.58831
O         33.21556        47.38446        -0.58706
O         57.64649        46.11907        -4.89798
O         45.28714        55.15648         1.46667
O         33.34670        33.17463        -1.63791
O         46.16582        26.15491         3.33987
O         53.60604        46.45995        -0.92576
O         31.87801        24.36593        -1.17948
O         29.53155        26.78632        -4.67674
O         47.18341        32.00737         2.97048
O         50.78732        28.86270        -0.13395
O         57.95677        34.91208        -2.91572
O         37.81492        20.44401         1.11474
O         53.40890        47.96036        -4.37305
O         45.71040        29.17261         3.28015
O         32.43958        23.99392        -4.70186
O         56.42029        37.43903        -3.24459
O         39.53314        35.67576        -1.45691
O         51.40535        42.03209         1.17850
O         31.16811        48.83590        -1.56644
O         34.27672        48.84450         2.69301
O         54.09703        25.75714         2.56887
O         44.26927        20.47296         3.17774
O         41.25127        22.75058        -0.40871
O         51.85820        35.08876        -1.91690
O         36.61814        39.41988        -0.33845
O         35.31577        37.14046        -1.26250
O         55.50933        28.88649        -0.63659
O         39.80277        52.86432         2.99683
O         49.76277        36.65210        -1.70105
O         24.43612        46.64959         1.41186
O         38.34839        33.78240         1.59957
O         52.15142        33.98026         1.45632
O         28.75717        29.82777         0.71145
O         34.39183        26.67120         1.01593
O         42.79671        46.14474         3.08929
O         42.18994        35.70791        -1.49502
O         45.47973        22.84847         0.10896
H         44.77885        23.26302        -0.43757
O         28.36448        49.33755         0.87994
H         27.93761        48.77667         1.57824
O         51.47956        47.20558         0.19103
H         52.45935        47.30132         0.24662
O         27.21595        32.99383         1.34216
H         27.72569        32.29900         1.80976
O         46.54127        37.27240         2.35585
H         45.73346        37.57946         2.83787
O         58.42925        43.53543        -5.22258
H         58.30261        44.47167        -5.51606
O         44.29164        34.45574        -1.47113
H         43.49435        34.68123        -2.01505
O         49.34364        20.72957         3.39019
H         50.16055        21.25422         3.53023
O         56.72809        26.18809         2.73743
H         57.00604        26.99752         3.22019
O         47.25519        32.41792        -0.58423
H         46.96558        33.13589        -1.18940
O         41.58339        46.38007        -0.33893
H         42.10259        47.12282        -0.71597
O         42.60086        40.06329         3.14520
H         42.82239        39.15559         3.45191
O         50.14329        47.15948        -3.20804
H         49.83766        47.91731        -3.76224
O         27.06685        46.99208        -1.66767
H         27.38247        47.54745        -2.41023
O         36.47994        29.65952         2.30365
H         35.56307        29.92323         2.55665
O         57.86968        33.61344         1.10110
H         57.19681        33.19529         1.68065
O         45.69280        48.83645         2.67698
H         44.81982        48.96442         3.13783
O         43.80183        31.19322         3.48505
H         43.41257        32.06060         3.73765
O         27.29970        34.04570        -2.15547
H         26.64887        34.50631        -2.72523
O         46.10274        22.56991         3.70597
H         45.33786        21.98660         3.92774
O         36.51515        48.09232         3.74642
H         35.55035        48.12381         3.96173
O         56.28380        25.52351        -0.83096
H         55.40319        25.91842        -1.00987
O         34.00426        40.00094        -0.33745
H         34.84876        39.69708        -0.76630
O         53.89186        43.76088        -4.21564
H         54.50049        44.00855        -4.94397
O         29.49187        45.38618        -0.98551
H         30.37411        45.56929        -1.37540
O         25.03641        30.31338        -3.93037
H         24.36983        30.86600        -4.38849
O         24.29842        41.78872         2.22452
H         24.65359        42.52964         2.78007
O         49.62879        44.23425         2.06824
H         49.06336        43.84284         2.76673
O         33.57535        29.47470         2.10152
H         33.51250        28.53862         2.39168
O         49.49299        30.92305         3.05140
H         48.76071        31.25775         3.62541
O         45.58730        27.74992         0.01117
H         45.73516        26.87445        -0.40563
O         37.30527        20.96268        -3.21989
H         37.74886        21.76910        -2.85336
O         39.31121        26.86975        -1.50528
H         39.67707        27.75346        -1.72615
O         53.09045        22.67711         2.52690
H         53.27897        21.71698         2.58177
O         24.90916        28.46062        -0.79118
H         25.57713        27.91493        -0.32539
O         54.40285        29.94085         2.69278
H         53.68205        30.45432         3.11573
O         52.62358        24.82097        -0.39129
H         51.70207        24.71340        -0.71321
O         33.89112        49.78621        -1.38450
H         33.42145        49.07977        -1.88377
O         49.77376        49.95043        -3.91403
H         50.27282        50.28447        -4.69015
O         56.49712        39.54034        -0.26572
H         56.70299        40.48368        -0.09456
O         42.56171        49.81517        -0.45054
H         42.50649        50.66352        -0.93916
O         33.56052        35.63205        -1.94047
H         33.14472        34.82020        -2.32221
O         29.84653        26.65774        -0.03411
H         30.44026        26.83410         0.72705
O         42.98086        48.82955         3.06730
H         42.90391        47.86822         3.37834
O         33.11987        39.78180         3.23403
H         32.26544        39.82158         3.72814
O         36.40487        27.08585        -1.56633
H         37.26885        26.87322        -1.99550
O         34.92659        24.03331         1.07448
H         34.62576        24.83586         1.55915
O         38.51738        23.09198        -1.57828
H         39.49319        22.97997        -1.49631
O         26.84021        47.47842         1.97269
H         25.89030        47.54362         2.24296
O         37.61971        50.51808         3.43812
H         37.24116        49.71215         3.87877
O         41.43664        29.36886         2.82080
H         40.63887        29.79258         3.20115
O         46.96316        51.36128         2.06413
H         47.27457        50.53075         2.50069
O         48.41852        29.74135        -0.23144
H         49.20393        29.54583        -0.79815
O         58.68777        26.63066        -1.15160
H         57.84469        26.14688        -1.34629
O         42.90274        29.28469        -0.52380
H         43.76820        28.92291        -0.82150
O         45.32047        38.06516        -1.05414
H         45.88769        37.49865        -1.63324
O         44.60095        52.52816         2.64901
H         45.53549        52.18202         2.69912
O         32.47509        41.88783         0.24864
H         33.17313        41.48972        -0.32772
O         42.97522        54.74362         2.79761
H         43.76855        54.21872         3.07205
O         22.94644        39.70922         1.23576
H         23.11010        40.52997         1.75944
H         22.45200        27.27185        -3.68170
H         22.23069        29.56580        -2.81433
H         22.20110        31.47028        -2.35129
H         22.07441        33.76713        -1.54139
H         22.05072        35.60796        -1.08550
H         22.01961        38.00241        -0.49801
H         23.22477        39.80800        -1.86013
H         23.40012        42.25266        -1.91962
H         22.63807        44.02866        -1.24498
H         22.58082        46.47222        -1.34266
H         26.23013        24.73227        -5.28065
H         23.96744        25.65177        -4.89065
H         25.95176        49.77817        -0.73376
H         23.69448        48.83953        -0.56081
H         28.03856        23.97831        -5.58667
H         27.55706        50.07835        -1.84216
H         30.36953        23.20672        -5.86982
H         29.45649        51.49330        -2.07321
H         34.71975        20.14476        -4.42976
H         33.08654        21.69656        -5.50980
H         32.85273        53.96718         0.27364
H         30.93025        52.63654        -0.47609
H         35.47445        18.66417        -3.16362
H         34.43058        54.92181         1.39006
H         36.87023        17.16107        -1.84483
H         36.53235        56.17520         1.49236
H         40.16869        14.91959         0.42047
H         38.15488        16.09673        -0.31987
H         40.17619        58.24819         0.09975
H         38.09013        57.06360         0.68380
H         42.56365        14.89905         1.03898
H         42.58523        58.31698        -0.15504
H         44.64487        16.02870         1.59374
H         44.78746        57.22194        -0.05054
H         48.48922        18.25176         1.87518
H         46.42564        16.99202         1.64057
H         47.73694        54.62045        -2.16295
H         45.94383        56.00015        -1.28225
H         49.89982        19.20986         0.90089
H         49.41163        53.79069        -2.37222
H         51.94622        20.42563         0.33672
H         51.10639        52.47985        -3.47672
H         55.62142        22.82732        -0.65787
H         53.56207        21.52105        -0.33706
H         55.11537        50.68933        -3.50896
H         52.96113        51.73473        -3.13001
H         57.67392        23.44227         1.11293
H         56.88410        49.62926        -3.12667
H         59.81609        24.63611         0.91642
H         61.10809        26.87014         0.66021
H         61.10025        29.28715         0.21604
H         60.91567        30.96062        -0.95728
H         60.82162        33.28415        -1.73577
H         60.91801        35.47370        -1.47123
H         60.77662        37.82433        -2.07117
H         60.56847        39.47681        -3.39147
H         60.38258        41.85249        -4.01626
H         60.33644        43.80890        -2.87860
H         60.25784        46.24835        -2.76177
H         59.02265        48.42316        -2.95423
