         621
 CSIRO Nanostructure Databank - Neutral Graphene Oxide Data Set
C          6.06524        31.70562         0.65160
C          6.06685        33.06265         0.74355
C          8.41177        27.45680        -0.07541
C          8.40731        28.86557        -0.14379
C          7.24298        29.59166         0.19060
C          8.37626        31.72232        -0.25202
C          7.22963        30.99221         0.18488
C          8.37583        33.14868        -0.19708
C          7.21990        33.83044         0.34196
C          8.35751        35.98291         0.02862
C          7.23754        35.20592         0.46425
C          8.36950        37.34030         0.29715
C         10.84065        23.15313        -0.33256
C         10.84056        24.56060        -0.40648
C          9.64262        25.32299        -0.18234
C         10.84849        27.48006        -0.47603
C          9.59964        26.71469        -0.25558
C         10.78288        28.91061        -0.87561
C          9.58530        29.59590        -0.57369
C         10.68375        31.71016        -1.18379
C          9.54835        31.01250        -0.68472
C         10.59268        33.18064        -1.33057
C          9.48129        33.89069        -0.66249
C         10.65281        36.05223        -0.95482
C          9.49736        35.31605        -0.59674
C         10.61745        37.52096        -0.89019
C          9.41429        38.19916        -0.23086
C         10.81005        40.15867         0.40491
C          9.59518        39.53916         0.35354
C         10.92030        41.47060         1.02079
C         13.24000        18.85048        -0.24845
C         13.23591        20.23933        -0.55221
C         12.03756        20.98691        -0.45113
C         13.21757        23.08964        -0.94316
C         12.01601        22.40365        -0.58068
C         13.23089        24.49245        -1.00408
C         12.06154        25.22684        -0.72247
C         13.18668        27.37682        -1.48549
C         12.10044        26.70510        -0.70622
C         13.13376        28.86449        -1.76587
C         11.90569        29.60828        -1.37163
C         13.04327        31.73099        -2.11476
C         11.85188        31.01666        -1.54967
C         13.11044        33.27105        -2.18432
C         11.82022        33.96243        -1.72722
C         13.08801        36.07275        -1.42876
C         11.88384        35.39560        -1.33165
C         13.16422        37.54440        -1.31175
C         11.90816        38.29939        -0.95689
C         13.24989        40.08825         0.12417
C         12.02225        39.54253        -0.13904
C         13.36592        41.32454         0.93658
C         12.11598        42.05361         1.26691
C         13.37379        44.22392         1.63717
C         12.17733        43.36786         2.01972
C         13.50876        45.56108         2.19689
C         15.65640        14.60127         0.71014
C         15.59786        15.98918         0.34781
C         14.43575        16.70047         0.10729
C         15.65653        18.81277        -0.47046
C         14.43495        18.12335        -0.18829
C         15.66997        20.16204        -0.89482
C         14.46141        20.88097        -0.94087
C         15.70300        23.03162        -1.68885
C         14.41156        22.30674        -1.33452
C         15.76506        24.50662        -1.51116
C         14.51559        25.21615        -1.17739
C         15.69414        27.34288        -2.00221
C         14.51010        26.70760        -1.36101
C         15.63019        28.83025        -2.27726
C         14.41111        29.56849        -1.92327
C         15.64838        31.80735        -2.02518
C         14.38164        31.02357        -2.12500
C         15.65646        33.15463        -1.78566
C         14.34140        33.85024        -1.40949
C         15.65687        36.08522        -1.74604
C         14.34473        35.34996        -1.74781
C         15.65629        37.51452        -1.31203
C         14.48917        38.17022        -1.05322
C         15.74171        40.37139        -0.58718
C         14.45342        39.59779        -0.61099
C         15.87850        41.53851         0.30408
C         14.67493        42.05293         0.99378
C         15.93555        44.21326         1.40796
C         14.65936        43.53587         1.18923
C         15.93152        45.57102         1.70033
C         14.69649        46.26763         2.05442
C         15.94444        48.38756         2.28715
C         14.76268        47.65760         2.39008
C         15.97256        49.79180         2.54794
C         18.16816        10.51572         1.92953
C         18.14785        11.86606         1.48271
C         16.92704        12.55454         1.29927
C         18.15002        14.58726         0.49820
C         16.86005        13.91195         0.90302
C         18.13383        16.07899         0.72585
C         16.85515        16.77914         0.43767
C         18.23542        18.80708        -0.42266
C         16.91587        18.07933        -0.30249
C         18.23675        20.23355        -0.79135
C         16.96438        20.79693        -1.30287
C         18.30654        23.01331        -1.82490
C         16.98481        22.24208        -1.73347
C         18.21866        24.45343        -1.29997
C         16.94605        25.20749        -1.58891
C         18.15988        27.37352        -1.88928
C         16.99420        26.66228        -1.76782
C         18.25064        28.79456        -2.44163
C         16.92409        29.58296        -2.45778
C         18.19452        31.77475        -2.01059
C         16.91618        31.07435        -2.29388
C         18.17776        33.15635        -1.92537
C         16.92183        33.91216        -1.81798
C         18.12336        36.10223        -2.23528
C         16.92928        35.29692        -1.73602
C         18.17451        37.55679        -1.73187
C         16.98891        38.16416        -0.98331
C         18.29726        40.27062        -0.56062
C         17.00930        39.72118        -1.16483
C         18.31287        41.52129         0.08745
C         17.10347        42.14035         0.52861
C         18.44978        44.17005         1.19090
C         17.19470        43.35908         1.43241
C         18.43469        45.56356         1.68482
C         17.17057        46.30484         1.79362
C         18.40358        48.44101         1.83390
C         17.18373        47.68568         1.98144
C         18.29559        49.92245         1.66319
C         17.11636        50.56818         2.33018
C         18.32672        52.73388         2.37600
C         17.15598        51.95007         2.59605
C         18.34526        54.12131         2.65692
C         20.74535         6.46056         2.94801
C         20.67077         7.86304         3.02123
C         19.44651         8.51713         2.66974
C         20.60946        10.48189         1.63197
C         19.37114         9.81027         2.11991
C         20.63960        11.96355         1.70778
C         19.40621        12.59496         1.37457
C         20.62525        14.66586         0.92435
C         19.41532        13.95764         1.02043
C         20.59084        16.07796         0.56278
C         19.41537        16.77580         0.49833
C         20.68961        18.92772         0.09573
C         19.37811        18.27960         0.43305
C         20.60690        20.39144        -0.05789
C         19.40479        20.99781        -0.69629
C         20.71472        23.09526        -1.08092
C         19.49262        22.35245        -1.12124
C         20.73457        24.49030        -1.40204
C         19.46978        25.17493        -1.73678
C         20.68998        27.39409        -1.47036
C         19.45683        26.65140        -1.93002
C         20.69486        28.87585        -1.78084
C         19.43403        29.59442        -1.86850
C         20.64556        31.70931        -1.45140
C         19.40917        30.98810        -1.83025
C         20.72336        33.16687        -1.60057
C         19.47996        33.87802        -1.97851
C         20.70320        36.09454        -1.64698
C         19.48107        35.37949        -2.09260
C         20.72905        37.45913        -1.44948
C         19.47664        38.24526        -1.45453
C         20.76442        40.22554        -0.61509
C         19.49551        39.55663        -0.76028
C         20.80036        41.52758        -0.14267
C         19.62482        42.06946         0.61688
C         20.86003        44.34087         0.65659
C         19.61383        43.57954         0.78389
C         20.90743        45.71379         1.02548
C         19.72500        46.35436         1.62542
C         20.84271        48.57922         1.42877
C         19.62236        47.82294         1.60120
C         20.80851        49.97730         1.65695
C         19.58300        50.65389         1.84559
C         20.74890        52.82097         1.69676
C         19.53500        52.04667         1.99266
C         20.71220        54.33961         1.91150
C         19.50750        54.92766         2.53880
C         20.78318        57.02488         2.86454
C         19.58100        56.24789         2.99098
C         20.82898        58.39682         3.19044
C         23.28756         3.75032         2.60684
C         22.06116         4.37881         2.71256
C         23.20655         6.53354         3.04413
C         21.98447         5.78625         2.92040
C         23.14665         7.92097         3.29582
C         21.89431         8.59255         3.32526
C         23.08899        10.85970         3.35168
C         21.90566         9.98417         3.60686
C         23.02878        12.17244         2.58588
C         21.83205        12.69599         1.84394
C         23.09310        14.71615         1.14438
C         21.86982        14.04603         1.33211
C         23.13403        16.00604         0.44717
C         21.85377        16.75819         0.20995
C         23.16869        18.90466         0.16657
C         21.89821        18.24292         0.15364
C         23.17152        20.38247         0.15667
C         21.90613        21.14455        -0.09517
C         23.20172        23.06484        -1.06335
C         21.96897        22.45777        -0.75449
C         23.17862        24.42568        -1.66373
C         21.93465        25.21276        -1.55452
C         23.18946        27.31504        -1.92571
C         21.96780        26.62030        -1.74246
C         23.15945        28.78182        -2.13586
C         21.91354        29.52603        -1.82334
C         23.24278        31.72239        -1.70062
C         21.98684        30.95684        -1.51064
C         23.22310        33.15716        -1.61342
C         21.94765        33.83069        -1.55016
C         23.25091        36.04522        -1.42496
C         21.93187        35.30507        -1.40570
C         23.19494        37.49718        -1.73584
C         21.96124        38.20528        -1.34434
C         23.23834        40.31901        -1.14295
C         21.98730        39.56806        -1.08799
C         23.21890        41.68612        -0.78247
C         21.91292        42.41726        -0.60018
C         23.21540        44.48692        -0.02075
C         22.01260        43.74458         0.10578
C         23.25231        45.86925         0.33244
C         22.06868        46.49824         0.82013
C         23.27920        48.67230         0.97996
C         22.06325        47.91317         1.10850
C         23.29754        50.05202         1.32883
C         22.09560        50.69059         1.96199
C         23.23925        52.90468         1.65168
C         22.04787        52.16875         1.69951
C         23.21478        54.32519         1.83226
C         22.01107        55.01686         2.06506
C         23.17545        57.20220         2.15558
C         21.98274        56.38973         2.41118
C         23.22010        58.59148         2.59926
C         22.02574        59.17634         3.10087
C         23.25442        61.26029         3.41980
C         22.06293        60.53882         3.49893
C         24.49019         4.48179         2.71076
C         25.69608         6.61487         3.08828
C         24.46972         5.85763         2.93692
C         25.67596         7.93379         3.41290
C         24.39774         8.64811         3.59523
C         25.66647        10.81568         3.04934
C         24.41991        10.17733         3.53613
C         25.64091        12.08628         2.43382
C         24.36952        12.85206         2.35726
C         25.64613        14.65822         1.06532
C         24.37654        14.17826         1.64063
C         25.61492        15.94286         0.34795
C         24.38932        16.77053         0.42461
C         25.71171        18.82813         0.12036
C         24.39098        18.14174         0.21326
C         25.71671        20.30945        -0.11164
C         24.45935        21.12283        -0.11486
C         25.70874        23.05029        -1.08189
C         24.45076        22.42533        -0.81122
C         25.74827        24.44485        -1.58618
C         24.47131        25.18075        -1.85896
C         25.65638        27.41420        -1.73648
C         24.44517        26.66313        -1.88027
C         25.71147        28.81579        -1.86841
C         24.46344        29.55684        -2.19001
C         25.64972        31.76963        -2.22712
C         24.42060        31.03111        -1.97436
C         25.69741        33.21184        -1.99461
C         24.46748        33.89971        -1.74307
C         25.72102        36.05613        -1.80839
C         24.50515        35.31987        -1.68157
C         25.75497        37.49803        -1.77464
C         24.49039        38.25282        -1.83850
C         25.68734        40.41557        -1.62111
C         24.47491        39.68989        -1.50952
C         25.57157        41.84228        -1.41751
C         24.40141        42.45454        -0.87270
C         25.58056        44.64528        -0.67926
C         24.40027        43.86005        -0.53632
C         25.60042        46.03933        -0.39529
C         24.44147        46.64648         0.11935
C         25.70020        48.74991         0.44690
C         24.45744        48.04448         0.46658
C         25.74657        50.07673         1.08241
C         24.48694        50.81107         1.28933
C         25.74148        52.96638         1.41366
C         24.50842        52.20529         1.51894
C         25.74391        54.36406         1.61391
C         24.51340        55.01789         2.17535
C         25.74921        57.25344         2.00520
C         24.47917        56.49667         1.87471
C         25.68316        58.63193         2.26223
C         24.45394        59.29882         2.58450
C         24.43822        60.66008         2.98660
C         26.90883         8.71630         3.77780
C         28.07460        10.70267         2.74820
C         26.89589        10.10223         3.15694
C         28.08913        12.01518         2.19538
C         26.84624        12.70231         2.00304
C         28.12239        14.55825         0.94780
C         26.86072        13.99417         1.33936
C         28.18689        15.83064         0.21528
C         26.91847        16.58955        -0.02825
C         28.18281        18.72775        -0.10790
C         26.97458        18.06017        -0.10318
C         28.19736        20.17033        -0.46952
C         26.93572        20.94150        -0.67268
C         28.19367        23.10756        -0.70872
C         26.93081        22.41620        -0.79826
C         28.20715        24.56102        -0.82372
C         26.99353        25.23568        -1.35304
C         28.08765        27.50548        -0.86439
C         26.84813        26.71602        -1.19247
C         28.13277        28.90917        -1.31236
C         26.95367        29.53288        -1.73781
C         28.19745        31.74130        -1.85726
C         27.00945        30.96327        -2.14138
C         28.19924        33.15426        -1.94191
C         26.93955        33.90633        -2.04172
C         28.18367        36.08598        -2.06897
C         26.94207        35.32683        -1.96903
C         28.21878        37.52765        -1.78267
C         26.96385        38.24616        -1.76195
C         28.25432        40.32174        -1.78836
C         26.95512        39.68925        -1.79656
C         28.44722        41.71196        -1.99586
C         26.57494        42.76333        -1.79898
C         28.04180        44.71402        -1.41609
C         26.71825        44.03350        -1.27838
C         28.05098        46.19475        -1.20436
C         26.73172        46.93058        -0.90893
C         28.11798        48.89829        -0.00839
C         26.88145        48.18220        -0.05547
C         28.19000        50.24174         0.35742
C         27.02668        50.88148         0.96712
C         28.15480        53.08248         0.84290
C         26.96315        52.33800         1.05802
C         28.12724        54.47797         1.06023
C         26.93856        55.13022         1.47180
C         26.93468        56.54117         1.75277
C         29.31382        12.64103         1.87506
C         30.60599        14.63124         1.18220
C         29.35440        13.93389         1.30232
C         30.70035        15.96392         0.77502
C         29.50246        16.59358         0.17772
C         30.64925        18.77657         0.22558
C         29.46707        18.06931         0.06688
C         30.64447        20.25893         0.27482
C         29.37486        20.97810        -0.08229
C         30.62777        23.11605        -0.10757
C         29.36170        22.42137        -0.36842
C         30.62341        24.60947        -0.28109
C         29.35399        25.28085        -0.63853
C         30.66892        27.48847        -0.79754
C         29.37126        26.76149        -0.62995
C         30.61182        28.89422        -1.23660
C         29.42104        29.55572        -1.42447
C         30.66517        31.68777        -1.26643
C         29.50105        30.98504        -1.91457
C         30.53330        33.13157        -1.00404
C         29.40618        33.84306        -1.64262
C         30.70390        36.01407        -1.33201
C         29.53263        35.26928        -1.83387
C         30.69833        37.43437        -1.38715
C         29.45492        38.16948        -1.59699
C         30.64934        40.33441        -1.23243
C         29.46219        39.60473        -1.51484
C         30.62566        41.73184        -1.02515
C         29.49115        42.46630        -1.44390
C         30.54839        44.67466        -0.70023
C         29.23278        43.88153        -0.88496
C         30.64712        46.14621        -0.95958
C         29.36796        46.91486        -0.97906
C         30.66722        48.94803        -0.25648
C         29.40605        48.13079        -0.08356
C         30.62700        50.31822        -0.10376
C         29.40247        51.01520         0.22533
C         29.36325        52.38760         0.46896
C         31.89078        16.73287         0.83707
C         33.10247        18.87955         0.61603
C         31.90805        18.11303         0.52737
C         33.16629        20.28224         0.40742
C         31.91962        21.00300         0.15470
C         33.18592        23.08023        -0.19594
C         31.90247        22.34419        -0.10934
C         33.17586        24.54219        -0.49582
C         31.88184        25.25048        -0.76846
C         33.23430        27.42240        -0.96238
C         31.92817        26.70720        -1.05328
C         33.22503        28.84095        -1.39865
C         31.90813        29.58027        -1.48443
C         33.10888        31.71855        -0.91019
C         31.86933        31.03875        -1.20337
C         33.03338        33.08560        -0.22583
C         31.76125        33.87785        -0.56697
C         33.06666        36.01591        -0.66384
C         31.84821        35.32735        -0.87487
C         33.09078        37.42338        -0.81166
C         31.90777        38.12448        -1.10960
C         33.17888        40.34744        -0.85300
C         31.93510        39.60396        -1.19397
C         33.12228        41.76367        -0.40159
C         31.80526        42.44877        -0.45976
C         33.13627        44.65846        -0.54638
C         31.82790        43.94467        -0.43791
C         33.11733        46.05145        -0.50697
C         31.90877        46.82074        -0.52223
C         31.89250        48.20161        -0.36210
C         34.35532        21.02237         0.56526
C         35.52372        23.21932         0.60871
C         34.39927        22.44303         0.39187
C         35.49008        24.70139         0.57527
C         34.26798        25.40896         0.05095
C         35.53424        27.60574        -0.03758
C         34.34297        26.83102        -0.39451
C         35.52128        28.97690        -0.31018
C         34.55308        29.59999        -1.34135
C         35.50238        31.93727        -1.04017
C         34.32717        31.10731        -1.11886
C         35.55199        33.17162        -0.43395
C         34.30039        33.89937        -0.34290
C         35.60660        35.97055        -0.47504
C         34.29309        35.27153        -0.39978
C         35.64846        37.45813        -0.53807
C         34.33715        38.14744        -0.42764
C         35.66808        40.36849        -0.34928
C         34.37908        39.62664        -0.35558
C         35.62371        41.76877        -0.42249
C         34.40596        42.51807        -0.45307
C         34.35580        43.91050        -0.53110
C         36.71692        25.50665         0.60202
C         38.05459        27.50093         0.65022
C         36.73136        26.88251         0.46453
C         38.22945        28.77427         1.14445
C         36.52646        29.79839         0.30454
C         38.19002        31.68726         0.43790
C         37.16656        30.89592        -0.20922
C         38.10739        33.08578         0.31996
C         36.80879        33.78485         0.08092
C         38.07657        36.04846         0.19973
C         36.80534        35.29467         0.10110
C         38.06399        37.45054         0.07180
C         36.88466        38.20351        -0.17728
C         36.86109        39.60932        -0.18216
C         39.39538        29.62309         1.19385
C         40.47340        31.85864         1.30211
C         39.33516        31.01792         1.02668
C         40.42666        33.21521         1.12047
C         39.23589        33.89749         0.67915
C         39.22675        35.30489         0.55458
O         17.99068        50.03954         0.11911
O         25.96364        19.77343         1.23022
O         32.88022        40.11044        -2.25830
O         26.36726        31.29103        -3.40888
O         36.47626        34.55892         1.31071
O         33.52208        23.60827        -1.55571
O         37.01865        29.38382         1.56016
O         21.30467        31.23436        -0.23353
O         27.63533        20.33778        -1.81977
O         13.53707        31.19255        -3.36880
O         26.10962        15.92976        -1.06060
O         36.72600        31.38619        -1.45067
O         26.69693        24.71192        -2.68492
O         24.43820         9.48498         4.81874
O         28.09694        45.59310        -2.56017
O         30.70248        33.56921         0.41860
O         23.77091        29.16043        -3.42387
O         34.16651        38.83738         0.86700
O         11.84977        27.29545         0.61125
O         18.79234        38.36778        -2.76537
O         29.02918        15.84131        -0.98904
O         24.43481        14.09272         3.13473
O         23.68022        56.93014         0.76240
O         29.74353        20.74833         1.33520
O         19.53570        25.76516        -3.07914
O         22.86167        12.11793         4.07173
O         23.68992        37.88233        -3.05145
O         15.44701        27.80539        -3.34859
O         27.10447        27.18108         0.17899
O         29.07613        35.70738        -3.14924
O         32.31453        41.90408         0.81340
O         16.88760        30.44274        -3.64320
O         19.72053        34.56001        -3.28085
O         35.81648        36.65170        -1.75835
O         14.75828        40.58658        -1.67408
O         30.63714        24.05693         1.06011
O         14.26094        41.21837         2.13287
O         22.61237        35.72446        -0.15092
O         12.83655        27.81087        -2.80794
O         16.96605        21.18087        -2.73266
O         14.78046        22.61695        -2.74020
O         19.28686        45.73276         2.88929
O         14.11566        33.70832        -0.04592
O         26.65022        50.18764         2.23329
O         13.75367        44.17067         0.21704
O         21.05954        21.15122         1.11792
O         23.78244        24.55070        -2.99440
O         20.51982        53.77469         0.59161
O         21.52390         9.88447         1.05679
O         31.77780        25.73875        -2.14792
O         27.49920        42.37209        -2.76606
O          9.56203        38.13445        -1.69738
O         22.50050        16.06091        -0.90479
O         14.91300        35.81103        -2.99662
O         30.18583        46.82043        -2.17695
O         34.43353        25.25597         1.49083
O         23.88260        21.09540         1.23071
O         17.76337        17.95624        -1.50668
O         14.76068        26.17119        -0.04331
O         32.58269        29.10331        -2.70120
O         17.37015        16.68357         1.81785
O         31.03298        44.48293         0.67872
O         10.77351        33.68886        -2.71398
O         30.11206        27.28370         0.54257
O         12.42364        38.33673        -2.31994
O         29.50614        47.52682         1.25857
H         29.44444        48.24854         1.92057
O         21.51369        42.80362        -1.98119
H         21.45542        41.98199        -2.51625
O         17.25866        37.86747         0.41449
H         16.49310        38.14454         0.96035
O         26.25000        47.43119        -2.19301
H         26.58944        46.81091        -2.88109
O         35.19754        29.41530        -2.61837
H         34.48722        29.42322        -3.29993
O         19.05400        18.77843         1.77002
H         19.82816        18.64011         2.35514
O         18.26820        24.34646         0.15000
H         18.30227        25.24735         0.53571
O         18.62708        28.57266        -3.82294
H         18.15642        29.24622        -4.36874
O         17.83539        36.18911        -3.64657
H         18.31299        36.97383        -4.00094
O         28.07081         7.97874         3.42896
H         28.83556         8.33707         3.92081
O         19.73552        41.53068         1.98291
H         18.92580        41.82375         2.47403
O         18.04486        51.41566        -0.24444
H         17.14138        51.75660        -0.03166
O         20.52905        27.37219         0.00089
H         21.18571        27.98725         0.39342
O         29.83049        30.93475        -3.34280
H         29.02228        30.67667        -3.83629
O         28.73700        43.57397         0.44723
H         29.52233        43.56603         1.05223
O         24.63444        54.93908         3.64035
H         24.76246        53.99559         3.87814
O         13.31043        33.64618        -3.54650
H         12.51008        33.39700        -4.05641
O         17.32787        42.82430         2.79843
H         17.54243        43.57818         3.39048
O         17.04618        40.05137        -2.55670
H         16.11882        40.21845        -2.84927
O         32.96042        32.71848         1.18081
H         32.01070        32.78830         1.44518
O         18.22480        14.46714        -0.96058
H         18.30653        13.51592        -1.18286
O         18.63696        23.09830        -3.22179
H         18.31764        22.27315        -3.65346
O         10.97380        44.11596         1.82995
H         10.93870        44.39938         0.89272
O         22.27871        50.55638         3.43594
H         22.47870        49.61298         3.61862
O         20.90229        10.58823         4.21820
H         21.21103        11.51924         4.41056
H          5.18505        31.12352         0.96033
H          5.18703        33.60113         1.12419
H          7.47606        26.92955         0.16251
H          6.34689        29.04449         0.51846
H          6.36936        35.72982         0.89013
H          7.58707        37.77942         0.93339
H          9.91444        22.62486        -0.06336
H          8.71189        24.77488         0.02775
H          8.71726        40.03000         0.79999
H          9.99409        41.98744         1.31343
H         12.28591        18.35311        -0.02063
H         11.10979        20.46609        -0.17249
H         12.24719        43.14151         3.11846
H         12.64002        46.02433         2.68665
H         14.70701        14.06310         0.86003
H         13.46297        16.18677         0.13957
H         13.83167        48.17287         2.66928
H         15.05714        50.27454         2.92333
H         17.21275        10.02391         2.16861
H         15.98843        12.01354         1.49628
H         16.26062        52.43837         3.01087
H         17.42838        54.58450         3.05174
H         19.82343         5.88624         2.77266
H         18.51697         7.93189         2.75606
H         18.68999        56.72161         3.42849
H         19.91114        58.88839         3.54677
H         23.33286         2.66571         2.43579
H         21.13059         3.80111         2.61991
H         23.26680        62.31576         3.72622
H         21.14764        61.01990         3.87150
H         25.45378         3.96079         2.62118
H         26.65976         6.09579         2.98688
H         26.61682        59.21266         2.30813
H         25.37340        61.23767         2.97162
H         26.88395         8.85553         4.90267
H         29.02635        10.15976         2.84329
H         29.04785        55.06570         0.93097
H         27.89214        57.08308         1.72472
H         30.25583        12.12106         2.10228
H         31.51084        14.11961         1.54411
H         31.55708        50.90266        -0.17591
H         30.28784        52.97536         0.36637
H         32.81991        16.25099         1.17718
H         34.03388        18.35103         0.87118
H         34.07362        46.59183        -0.42755
H         32.84420        48.74030        -0.23212
H         35.27213        20.49930         0.87719
H         36.46679        22.73815         0.91087
H         36.57235        42.32778        -0.43121
H         35.30075        44.47425        -0.56997
H         37.66273        24.98882         0.82548
H         38.93265        26.87580         0.42619
H         39.00564        37.99736         0.23604
H         37.80749        40.15000        -0.02538
H         40.38063        29.15952         1.36046
H         41.39006        31.39027         1.68962
H         41.31153        33.82406         1.35876
H         40.16418        35.84865         0.74910
