         234
 CSIRO Nanostructure Databank - Neutral Graphene Oxide Data Set
C          1.69328         2.37299         2.22781
C          1.60446         3.72186         1.81659
C          2.87914         1.67803         2.12963
C          2.70924         4.40147         1.30246
C          1.48065         6.58771         1.19713
C          1.41144         7.92083         0.84898
C          2.63471         5.81383         0.91475
C          2.50562         8.58844         0.23520
C          1.20560        10.71995        -0.06296
C          1.11689        12.05158        -0.42098
C          2.40014         9.96434        -0.16298
C          2.27168        12.84439        -0.80458
C          1.13728        15.06538         0.04718
C          1.17544        16.32807         0.51533
C          2.32063        14.38522        -0.53287
C          2.41067        17.12961         0.43829
C          2.53958        18.41662         1.16405
C          4.04177         2.31121         1.59552
C          3.95470         3.68791         1.18148
C          5.24511         1.60092         1.43649
C          5.09085         4.31300         0.62788
C          3.72822         6.45194         0.28153
C          3.70674         7.84198        -0.01381
C          4.93287         5.64260        -0.01231
C          4.89544         8.53995        -0.49641
C          3.58380        10.60797        -0.74394
C          3.57493        12.11794        -0.98338
C          4.87049         9.89412        -0.71176
C          4.87253        12.82044        -0.79129
C          3.64583        14.95414        -0.26923
C          3.67881        16.39251         0.08433
C          4.85576        14.23543        -0.38331
C          4.94174        16.94678         0.70308
C          3.72367        19.07173         1.22545
C          4.96328        18.45467         0.77003
C          6.39347         2.21995         0.89496
C          6.31068         3.60057         0.49227
C          7.61839         1.52448         0.73200
C          7.49500         4.24765         0.02664
C          6.14851         6.32418        -0.57324
C          6.11428         7.79047        -1.02173
C          7.44508         5.71198        -0.15973
C          7.42028         8.54977        -0.82177
C          6.06465        10.62331        -1.31641
C          6.03973        12.10125        -0.93597
C          7.38022         9.93307        -0.97330
C          7.32061        12.72177        -0.55061
C          6.09431        14.92703        -0.17862
C          6.16491        16.31802         0.10534
C          7.35197        14.16667        -0.14846
C          7.34624        17.05500        -0.03149
C          6.11539        19.15100         0.55847
C          7.34580        18.50442         0.11484
C          8.77373         2.16439         0.24357
C          8.71812         3.57711        -0.05754
C          9.99227         1.45865         0.05318
C          9.91832         4.26385        -0.49445
C          8.72222         6.45783        -0.38890
C          8.67336         7.86387        -0.82777
C          9.92999         5.67445        -0.67219
C          9.88889         8.52849        -1.06615
C          8.61357        10.65745        -1.00640
C          8.59908        12.06046        -0.88505
C          9.86380         9.95666        -1.10570
C          9.80415        12.80293        -0.91230
C          8.67936        14.91901        -0.06028
C          8.58509        16.39558        -0.36103
C          9.82322        14.22450        -0.76804
C          9.71072        17.10641        -0.67936
C          8.46534        19.22774        -0.20054
C          9.68994        18.61393        -0.83010
C         11.14555         2.09238        -0.44762
C         11.10302         3.51491        -0.73353
C         12.34608         1.38417        -0.67714
C         12.20349         4.14039        -1.36700
C         11.03241         6.32607        -1.27251
C         11.14204         7.80192        -1.26199
C         12.03661         5.47254        -1.77748
C         12.34508         8.51842        -1.29039
C         11.07630        10.67679        -1.08585
C         11.04276        12.09820        -1.01686
C         12.33319         9.95513        -1.02523
C         12.24682        12.83257        -0.86272
C         11.01518        14.93336        -0.95617
C         10.97124        16.41601        -1.02962
C         12.25280        14.22972        -0.92676
C         12.25960        17.21037        -1.00457
C         10.98054        19.21249        -0.30198
C         12.20711        18.58402        -0.41941
C         13.54660         2.01251        -1.10668
C         13.50285         3.43584        -1.53980
C         14.74817         1.31357        -1.03466
C         14.84125         4.23156        -1.49411
C         13.92745         6.54212        -1.86691
C         13.75918         8.02779        -1.67936
C         14.87466         5.72145        -1.32699
C         14.78824         8.52615        -0.68240
C         13.46398        10.64255        -0.56303
C         13.39690        12.08220        -0.33702
C         14.68009         9.91305        -0.13572
C         14.65978        12.86204         0.04685
C         13.55324        14.94094        -0.90815
C         13.57117        16.47206        -1.01106
C         14.74066        14.24377        -0.40851
C         14.81478        17.22539        -0.60043
C         13.41496        19.20532         0.02099
C         14.69292        18.59560        -0.01952
C         16.05986         1.95500        -0.99026
C         16.09661         3.48881        -1.09057
C         17.16789         1.29804        -0.29332
C         17.02360         4.12173        -0.05829
C         16.12355         6.36869        -0.83529
C         16.12660         7.87802        -0.66558
C         17.19397         5.59617        -0.22244
C         17.11018         8.47321         0.26315
C         15.93485        10.60982         0.26868
C         15.90428        12.08683         0.39623
C         17.10192         9.91101         0.49993
C         17.20916        12.80219         0.44519
C         16.04021        14.93265        -0.47385
C         16.06808        16.43701        -0.38699
C         17.27097        14.21195        -0.03776
C         17.18192        17.05434         0.41335
C         15.85240        19.25355         0.39048
C         17.11974        18.54142         0.65740
C         18.33955         1.99710         0.05934
C         18.34288         3.42216         0.13264
C         19.53901         1.28743         0.40791
C         19.50888         4.13704         0.51856
C         18.25324         6.24750         0.40272
C         18.03946         7.61425         0.80066
C         19.51539         5.57290         0.68039
C         19.88145         8.61338         1.13608
C         18.41234        10.63207         0.97229
C         18.48832        12.05657         0.43697
C         19.70937         9.89279         0.67705
C         19.67283        12.71748         0.23787
C         18.49086        14.90086         0.53713
C         18.49673        16.39079         0.38637
C         19.73354        14.21983        -0.03020
C         19.66783        17.07573         0.61507
C         18.41501        19.21953         0.75311
C         19.61790        18.53080         0.75633
C         20.69079         1.96930         0.70756
C         20.71517         3.39639         0.74104
C         21.92022         4.10096         0.99236
C         20.76197         6.26777         0.84843
C         20.93394         7.71390         0.77798
C         21.94621         5.47925         0.98596
C         22.10591         8.37150         0.26550
C         20.82129        10.52053        -0.12231
C         20.94132        12.00086         0.23014
C         22.08725         9.70064        -0.06055
C         22.10095        12.69926         0.43869
C         20.98508        14.89818         0.50912
C         20.94540        16.35865         0.67212
C         22.10453        14.12513         0.67925
C         22.09443        17.10844         0.85253
C         20.87237        19.22484         0.90569
C         22.05152        18.53047         0.96319
O         12.94277         6.00410        -2.70451
O         15.85239        17.14521        -1.64034
O         16.63337         7.32298        -1.89321
O         16.84621        17.51515         1.76563
O          3.43456        11.20657        -2.09833
O         16.63871         2.72106        -2.15289
O          5.33336         5.50172        -1.43694
O         18.82627         8.04721         1.87417
O         13.78818        15.67699        -2.18745
O          8.12194         6.36904         0.97298
O         14.31282         8.71410         0.67543
O         14.27263         3.74211        -2.73222
O         13.63017        12.55431         1.05534
O          7.29846        13.11321         0.89810
O         11.54856        17.01235        -2.26413
O         16.43856        12.60391         1.68605
O          5.98546         7.83711        -2.43815
O         17.02405        14.37716        -1.45485
O          2.07025        13.83037        -1.85992
O          3.01124        17.21647        -0.91210
O         16.25092         3.95991         1.19935
H         16.79843         4.31567         1.93227
O         18.49816        14.65891         1.96576
H         17.87528        15.28310         2.39617
O          5.96494        10.49115        -2.75373
H          5.90340         9.49692        -2.91656
O          4.89577        16.47146         2.09303
H          5.75501        16.68808         2.51324
O         20.39964        10.50266        -1.53751
H         21.18745        10.69586        -2.08796
O          9.62203        18.93840        -2.25715
H         10.34242        18.41692        -2.69032
O          9.08871        14.87953         1.34403
H          8.74494        14.02745         1.70682
O         19.72967        14.44202        -1.45753
H         20.47600        13.94234        -1.84719
O         18.31229        10.74997         2.41098
H         17.55313        11.35653         2.59457
O         14.05874         8.66572        -2.94820
H         13.63915         8.13253        -3.65699
H          0.79731         1.87869         2.62860
H          0.63198         4.22391         1.90600
H          2.94023         0.62784         2.44904
H          0.61684         6.13064         1.69724
H          0.48877         8.47392         1.06932
H          0.28299        10.22094         0.26437
H          0.12992        12.53404        -0.41916
H          0.18598        14.51490         0.05583
H          0.27797        16.78425         0.96000
H          1.62355        18.88049         1.55979
H          5.29085         0.54328         1.73602
H          3.77272        20.08509         1.65252
H          7.66825         0.45928         1.00381
H          6.12016        20.24727         0.66225
H         10.02569         0.38130         0.27483
H          8.44000        20.32520        -0.11351
H         12.38138         0.31203        -0.43052
H         10.95018        20.23650         0.10185
H         14.70740         0.28613        -0.63718
H         13.33950        20.21803         0.44463
H         17.12675         0.20744        -0.15014
H         15.78607        20.31055         0.69122
H         19.53353         0.18833         0.37862
H         18.42756        20.32013         0.77508
H         21.61933         1.42117         0.92412
H         22.84707         3.53364         1.16014
H         22.90476         5.99171         1.14911
H         23.03125         7.79639         0.10871
H         22.99804        10.15111        -0.48566
H         23.06700        12.17373         0.46630
H         23.05558        14.57791         0.99721
H         23.07671        16.61663         0.89079
H         20.86517        20.32097         0.99175
H         22.99905        19.07318         1.09004
