         334
 CSIRO Nanostructure Databank - Neutral Graphene Oxide Data Set
C         30.33887        57.12703         0.02887
C         30.38371        58.61302         0.30254
C         29.20528        59.31487         0.53473
C         30.38979        61.42935         0.54835
C         29.21137        60.72031         0.66911
C         32.88631        52.86623        -0.47125
C         32.82651        54.28974        -0.25283
C         31.66095        54.99361        -0.18317
C         32.87651        57.18645         0.01969
C         31.63642        56.39502         0.39112
C         32.85176        58.61376         0.01883
C         31.61096        59.31813         0.20664
C         32.83609        61.45388         0.18914
C         31.61876        60.74593         0.31513
C         35.34037        48.57751        -0.47061
C         35.28694        50.00982        -0.63316
C         34.10933        50.71797        -0.55600
C         35.34865        52.88425        -0.56118
C         34.07944        52.16255        -0.54445
C         35.28233        54.38743        -0.67467
C         34.12181        55.00344         0.13549
C         35.30862        57.21962        -0.20213
C         34.07958        56.50525        -0.10257
C         35.30848        58.64313        -0.17278
C         34.06739        59.33783        -0.07277
C         35.28427        61.48899        -0.05830
C         34.05996        60.78006         0.00284
C         37.68226        44.32433         0.56621
C         37.71848        45.78843         0.19173
C         36.55381        46.45636        -0.10180
C         37.84785        48.56987        -0.61511
C         36.52123        47.86637        -0.39515
C         37.72486        50.03314        -0.13966
C         36.58966        50.73160        -0.91500
C         37.84192        52.94760        -0.81254
C         36.53319        52.21972        -0.62953
C         37.79562        54.40865        -0.41677
C         36.58674        55.09319        -0.39727
C         37.77569        57.24375        -0.24700
C         36.55825        56.51277        -0.26106
C         37.77501        58.68378        -0.18764
C         36.54408        59.37022        -0.17311
C         37.74355        61.53045        -0.09371
C         36.52725        60.81973        -0.12349
C         40.24555        40.06254         0.23895
C         40.23072        41.47503         0.24778
C         39.00750        42.21520         0.31058
C         40.22973        44.32702         0.34803
C         38.99717        43.59599         0.36558
C         40.23818        45.75364         0.43824
C         38.98566        46.50526         0.27286
C         40.32031        48.60917        -0.00960
C         39.01643        47.85742         0.03414
C         40.18793        50.10220         0.32090
C         39.03703        50.80660        -0.13078
C         40.20096        52.99833         0.25242
C         39.02145        52.19590        -0.23490
C         40.28164        54.42638        -0.22309
C         39.01902        55.13436        -0.32312
C         40.25324        57.29996        -0.43375
C         39.00027        56.53946        -0.32349
C         40.24574        58.72611        -0.07043
C         39.01557        59.40300        -0.06598
C         40.19495        61.54764         0.15098
C         38.99907        60.85920         0.00297
C         42.70024        35.84255        -0.23050
C         42.68954        37.17963         0.10781
C         41.47322        37.92058         0.17871
C         42.70996        40.06246         0.20167
C         41.45554        39.33210         0.23026
C         42.70259        41.48423         0.16175
C         41.46463        42.19651         0.21496
C         42.70685        44.33645         0.22008
C         41.46668        43.61997         0.26188
C         42.69921        45.75321         0.35671
C         41.45827        46.43548         0.51507
C         42.73190        48.60153         0.60032
C         41.41818        47.91011         0.82483
C         42.72849        50.04177         0.71571
C         41.40840        50.83604         0.61200
C         42.72528        52.90735         0.12982
C         41.50140        52.25179         0.22306
C         42.77527        54.33018        -0.36423
C         41.48201        55.08133        -0.23195
C         42.77123        57.26091         0.06997
C         41.55674        56.54845        -0.40260
C         42.69175        58.66896         0.34053
C         41.47877        59.37069         0.24466
C         42.72860        61.50926         0.19320
C         41.44144        60.84563         0.61923
C         45.19207        32.99136        -0.41242
C         43.97388        33.66442        -0.50562
C         45.22134        35.73477        -0.06903
C         43.95277        35.15318        -0.70439
C         45.24037        37.23905         0.00112
C         43.96879        37.89029         0.50819
C         45.15493        40.07090         0.18654
C         43.94027        39.37407         0.25490
C         45.14537        41.47257         0.03720
C         43.93508        42.19512         0.07575
C         45.17370        44.35368         0.01541
C         43.95032        43.64074         0.07807
C         45.17757        45.78923         0.11161
C         43.93940        46.47150         0.29212
C         45.19334        48.58316         0.37462
C         43.94303        47.90096         0.37487
C         45.18563        50.03723         0.61768
C         43.94484        50.73856         0.14593
C         45.20642        52.92566         0.30460
C         43.95800        52.22613         0.27428
C         45.18750        54.37655         0.23389
C         44.00260        55.08942         0.08901
C         45.20861        57.21449         0.57222
C         43.95140        56.51951         0.22288
C         45.22126        58.70337         0.82564
C         43.88786        59.44145         0.91688
C         45.17906        61.47706         0.09732
C         43.93616        60.84829         0.34319
C         46.42889        33.63112        -0.46636
C         47.72364        35.79573        -0.08182
C         46.50563        35.12402        -0.67005
C         47.71541        37.17273         0.11259
C         46.42709        37.89091         0.10057
C         47.70918        40.03162         0.20280
C         46.42743        39.33485         0.54513
C         47.72382        41.44257        -0.15696
C         46.39904        42.19640        -0.23793
C         47.65514        44.32709        -0.15287
C         46.43449        43.66040        -0.10688
C         47.65854        45.80978        -0.42512
C         46.40359        46.50772         0.03550
C         47.67814        48.66622         0.17221
C         46.42295        47.91246         0.21244
C         47.70528        50.04850         0.35211
C         46.46204        50.78934         0.62933
C         47.68675        52.95882         0.86620
C         46.42473        52.25381         0.44802
C         47.74211        54.38988         0.40410
C         46.48736        55.05944         0.10505
C         47.73980        57.27846         0.42222
C         46.48373        56.58482         0.14667
C         47.71337        58.71139         0.52672
C         46.47582        59.41934         0.56833
C         47.64576        61.53893         0.19200
C         46.44585        60.83688         0.29180
C         48.90305        37.90691         0.38642
C         50.14852        40.08120         0.35545
C         48.93021        39.33712         0.34462
C         50.16858        41.49989         0.27270
C         48.94978        42.21715         0.03444
C         50.14141        44.35739         0.06764
C         48.91514        43.62354        -0.05564
C         50.14436        45.79562         0.06017
C         48.92890        46.52265        -0.03540
C         50.17286        48.62591         0.06357
C         48.93204        47.92695         0.04595
C         50.19841        50.12891        -0.13538
C         48.91862        50.82580         0.28087
C         50.19667        52.93735         0.53204
C         48.94229        52.18993         0.50466
C         50.19275        54.38649         0.53767
C         48.93789        55.09786         0.42058
C         50.18248        57.25869         0.45440
C         48.94102        56.55295         0.39406
C         50.16709        58.69394         0.39650
C         48.94813        59.40934         0.45408
C         50.13920        61.52295        -0.23277
C         48.96625        60.91904         0.56102
C         51.37054        42.24196         0.36193
C         52.59240        44.38518         0.37319
C         51.37085        43.65023         0.25875
C         52.62041        45.77498         0.32392
C         51.37755        46.50285         0.17871
C         52.68623        48.67273         0.01573
C         51.37877        47.91848         0.11506
C         52.61838        49.99658         0.76144
C         51.36422        50.76686         0.59161
C         52.67330        52.92199         0.68806
C         51.39768        52.24541         0.62312
C         52.66470        54.38123         0.60242
C         51.40873        55.09225         0.56242
C         52.63623        57.25721         0.54212
C         51.40880        56.53896         0.52206
C         52.61993        58.67701         0.44827
C         51.41879        59.39865         0.31757
C         52.64030        61.50561        -0.04021
C         51.44857        60.82461         0.07541
C         53.85975        46.49939         0.45033
C         55.12817        48.63003         0.44612
C         53.91615        47.87872         0.38950
C         55.14188        50.02474         0.57600
C         53.90939        50.73006         1.11350
C         55.17034        52.94886         0.99412
C         53.86277        52.21674         0.79683
C         55.13443        54.37459         0.49970
C         53.87107        55.07955         0.50345
C         55.08303        57.18932         0.23108
C         53.88366        56.52715         0.44994
C         55.17788        58.63240         0.40393
C         53.88058        59.42986         0.52550
C         55.12287        61.48604        -0.07331
C         53.91279        60.85443         0.13349
C         56.31938        50.77266         0.37891
C         57.53629        52.87932         0.14922
C         56.36660        52.17879         0.45975
C         57.56525        54.30168         0.08017
C         56.30404        55.01723         0.16849
C         57.57334        57.18019        -0.12089
C         56.26887        56.44515        -0.31449
C         57.58117        58.58281        -0.11979
C         56.39987        59.33482         0.00312
C         57.55662        61.42884        -0.49626
C         56.38814        60.77586        -0.13784
C         58.75486        55.00959        -0.14718
C         60.02991        57.12328        -0.34799
C         58.80001        56.43594        -0.19069
C         60.10039        58.53112        -0.41018
C         58.87858        59.35074        -0.05413
C         60.10011        61.38068        -0.79862
C         58.78728        60.63746        -0.87263
C         61.27413        59.23806        -0.65356
C         61.26185        60.67207        -0.73828
O         34.20393        54.82682         1.52115
O         41.02129        57.03762        -1.68354
O         42.09450        50.56287         1.92938
O         51.66069        50.06196         1.86118
O         45.75680        50.40428         1.91046
O         36.84780        50.70401        -2.32363
O         47.04625        41.71267        -1.46352
O         46.48719        55.89603        -1.12777
O         54.67099        59.11517         1.71006
O         45.32553        57.72264         1.94438
O         47.63472        45.91868        -1.90593
H         46.89282        45.36218        -2.22749
O         54.05426        50.65027         2.57167
H         53.13372        50.59868         2.92998
O         49.88398        61.41149        -1.64154
H         49.83994        60.46041        -1.87217
O         49.23301        61.26028         1.96105
H         48.50271        60.89280         2.50231
O         43.98187        35.42049        -2.16060
H         43.23449        34.93170        -2.56515
O         31.69985        56.24554         1.83630
H         32.54303        55.74665         2.01956
O         50.38008        50.38319        -1.55503
H         49.65763        49.93282        -2.04010
O         56.06846        56.38354        -1.78155
H         56.83597        55.89980        -2.15551
O         36.61789        43.64714        -0.10825
H         36.75275        43.74973        -1.07248
O         34.94885        54.67096        -2.06747
H         35.62655        54.23515        -2.62821
O         45.17534        35.31283         1.33348
H         46.07028        35.46508         1.70860
O         41.34631        60.94707         2.08157
H         42.14456        60.49011         2.45618
O         46.61263        35.36030        -2.10152
H         45.70152        35.31262        -2.48454
O         30.08748        56.99417        -1.38095
H         30.34504        56.09191        -1.66339
O         47.63561        53.00921         2.33837
H         47.30944        52.13711         2.65291
O         38.13768        52.95805        -2.24875
H         37.75124        52.08988        -2.59346
O         43.90968        50.45925        -1.29419
H         43.26935        51.07279        -1.71485
O         39.88016        53.15537         1.69455
H         39.96375        52.27433         2.12022
O         41.04830        48.04567         2.22779
H         41.36751        48.93442         2.52485
O         42.95504        54.18907        -1.82231
H         42.76715        55.06165        -2.23213
O         43.64109        59.60109         2.34779
H         43.97754        58.77905         2.77948
O         38.16453        48.54147        -2.03600
H         37.62854        49.29316        -2.45670
O         55.36403        53.04003         2.44610
H         55.09331        52.16292         2.81978
O         59.04335        59.76032         1.33229
H         59.07154        58.95302         1.88677
O         46.41011        39.27591         2.02058
H         45.57848        38.78814         2.26498
O         44.05281        37.73913         1.97595
H         44.20801        36.77282         2.13156
O         40.75378        48.64599        -1.39287
H         39.92182        48.66456        -1.94641
O         58.59181        60.25517        -2.27055
H         58.61693        61.06982        -2.81430
O         37.31063        50.00022         1.24925
H         37.94763        49.44738         1.75001
O         52.87419        49.04711        -1.38289
H         52.87496        48.22655        -1.91846
H         29.48668        56.66310         0.60496
H         28.25327        58.76927         0.60626
H         30.39469        62.52555         0.63482
H         28.26641        61.24987         0.85455
H         31.93624        52.30743        -0.46887
H         30.70414        54.49159        -0.40819
H         32.83089        62.55218         0.26337
H         34.38848        48.04070        -0.31867
H         33.15457        50.18044        -0.43394
H         35.26962        62.58838        -0.00065
H         37.44140        44.26289         1.66752
H         35.60320        45.89998        -0.08087
H         37.72346        62.63024        -0.05516
H         39.29026        39.51661         0.25609
H         38.05217        41.67026         0.33901
H         40.18490        62.64842         0.18152
H         41.73987        35.34270        -0.44426
H         40.51909        37.38152         0.06923
H         42.71455        62.55105        -0.16339
H         45.17358        31.89586        -0.29922
H         43.02795        33.10468        -0.46425
H         45.17556        62.53017        -0.22278
H         47.35317        33.03473        -0.46842
H         48.67731        35.24623        -0.04848
H         47.62094        62.62107        -0.00410
H         49.85599        37.36192         0.45943
H         51.10061        39.54224         0.46790
H         50.21977        62.61231         0.00024
H         52.32207        41.71365         0.52072
H         53.53172        43.82880         0.50931
H         52.63049        62.57649        -0.29451
H         54.78071        45.92489         0.63448
H         56.08651        48.09855         0.32926
H         55.12992        62.55981        -0.31658
H         57.22948        50.23763         0.06148
H         58.45102        52.31868        -0.10021
H         57.53555        62.51312        -0.69416
H         59.70009        54.45257        -0.22998
H         60.94916        56.53398        -0.49147
H         60.11437        62.47416        -0.92494
H         62.22521        58.70175        -0.78774
H         62.22718        61.19782        -0.78963
