         420
 CSIRO Nanostructure Databank - Neutral Graphene Oxide Data Set
C         28.16571        27.37008         1.40307
C         28.09446        28.77275         1.16836
C         26.88126        29.48249         1.35487
C         27.96454        31.57305         0.71229
C         26.82153        30.84215         1.13204
C         27.87526        32.99990         0.45086
C         26.70307        33.73499         0.56887
C         27.81556        35.91817         0.33240
C         26.67374        35.15110         0.50894
C         27.85408        37.36370         0.49286
C         26.68558        38.09829         0.77147
C         27.92439        40.18891         0.82821
C         26.72676        39.47984         0.95506
C         28.03641        41.65676         1.20400
C         26.74529        42.43304         1.19758
C         27.83324        44.49766         0.44702
C         26.68636        43.75516         0.92413
C         27.85256        45.87653         0.33643
C         30.52849        27.35678         0.78918
C         29.34358        26.68832         1.22085
C         30.48739        28.75613         0.55713
C         29.26153        29.47410         0.74855
C         30.40943        31.58812         0.18395
C         29.19472        30.88272         0.52520
C         30.39413        33.00569         0.07949
C         29.08782        33.69734         0.01037
C         30.33183        35.95580         0.07419
C         29.05995        35.23190        -0.03803
C         30.33336        37.33972         0.19943
C         29.08904        38.06611         0.36373
C         30.36146        40.19903         0.33917
C         29.11788        39.48349         0.50813
C         30.33638        41.63450         0.20606
C         29.14113        42.32573         0.42162
C         30.31064        44.51968        -0.28606
C         29.00676        43.72639         0.03282
C         30.28165        45.97594        -0.08778
C         29.05027        46.59755         0.08651
C         32.99745        24.53695         0.47301
C         31.84968        25.23870         0.78611
C         32.89814        27.32067         0.04911
C         31.75520        26.63332         0.55589
C         32.86227        28.74822        -0.11692
C         31.67527        29.45469         0.14737
C         32.82851        31.61874        -0.25940
C         31.63567        30.89332         0.02365
C         32.81414        33.04710        -0.23979
C         31.58273        33.72864        -0.04002
C         32.83769        35.93507        -0.10186
C         31.60354        35.19188         0.31937
C         32.81997        37.35209        -0.03870
C         31.58848        38.05936         0.16178
C         32.82324        40.19741         0.09314
C         31.57934        39.47915         0.18897
C         32.77685        41.62546        -0.05103
C         31.57058        42.34388        -0.10294
C         32.76362        44.52929        -0.26768
C         31.58177        43.78447        -0.21769
C         32.77588        45.96672        -0.13221
C         31.54837        46.69009        -0.04773
C         32.82582        48.77074         0.07591
C         31.61211        48.09586         0.06327
C         35.39763        23.03215        -0.11456
C         35.32057        24.43790        -0.62642
C         34.10772        25.19469        -0.10260
C         35.22723        27.25460        -0.96633
C         34.06365        26.57511        -0.28870
C         35.23420        28.74406        -0.75767
C         34.07240        29.45655        -0.50981
C         35.20945        31.64939        -0.82954
C         34.05236        30.91756        -0.53690
C         35.22880        33.09090        -0.72647
C         34.02522        33.79092        -0.43487
C         35.26493        35.96080        -0.49676
C         34.03551        35.23080        -0.34914
C         35.29365        37.36921        -0.32868
C         34.05574        38.07781        -0.11691
C         35.34949        40.16214         0.36361
C         34.04444        39.48438         0.01910
C         35.30980        41.66997         0.10794
C         34.03658        42.31594        -0.34438
C         35.28937        44.57597        -0.32344
C         34.03295        43.83595        -0.50545
C         35.26858        45.92006        -0.05780
C         34.02050        46.66484        -0.04831
C         35.33706        48.81337         0.04053
C         34.05782        48.08312         0.02521
C         35.39380        50.21958         0.01455
C         37.79689        23.19852         0.38793
C         36.54374        22.47792         0.32920
C         37.80763        24.59907         0.03093
C         36.58861        25.23661        -0.37531
C         37.78162        27.35188        -0.69584
C         36.56279        26.60205        -0.63425
C         37.77718        28.74104        -1.03625
C         36.46064        29.41953        -1.21023
C         37.70964        31.65121        -1.35537
C         36.40642        30.92612        -1.30294
C         37.70217        33.05737        -0.87159
C         36.43840        33.82183        -0.87421
C         37.70635        35.96406        -0.89348
C         36.48558        35.24194        -0.74795
C         37.75157        37.38007        -0.75048
C         36.54291        38.08454        -0.42186
C         37.80809        40.19021        -0.29040
C         36.59061        39.48927        -0.20381
C         37.84899        41.64753        -0.23675
C         36.57338        42.40666        -0.12200
C         37.80490        44.51831        -0.23044
C         36.55570        43.82945        -0.66710
C         37.84555        45.90234         0.16960
C         36.51934        46.65458         0.27466
C         37.82166        48.79121         0.22885
C         36.56398        48.11232         0.15124
C         37.83657        50.22557         0.21385
C         36.61067        50.89829         0.10070
C         40.27199        20.42097         0.82202
C         39.05967        21.10496         0.72308
C         40.22031        23.29846         0.99191
C         38.99110        22.51686         0.71160
C         40.24802        24.74802         0.55728
C         39.00994        25.33906         0.01069
C         40.26372        27.39857        -0.57136
C         39.02657        26.69344        -0.43188
C         40.24597        28.76771        -0.93622
C         38.99143        29.43719        -1.13136
C         40.27712        31.64700        -1.11934
C         39.01510        30.90026        -1.36927
C         40.27213        33.03203        -1.11017
C         39.00589        33.76768        -0.86695
C         40.26784        35.92888        -1.32136
C         38.95043        35.21777        -1.18548
C         40.23536        37.42596        -1.28325
C         38.98352        38.10985        -0.87931
C         40.29315        40.21126        -0.58434
C         39.03440        39.49466        -0.60686
C         40.32389        41.63896        -0.10185
C         39.02265        42.33741        -0.38347
C         40.32480        44.56486        -0.51407
C         39.02813        43.80858        -0.54276
C         40.32205        45.98191        -0.15307
C         39.10356        46.66930         0.05693
C         40.36250        48.77356         0.47971
C         39.05881        48.06632         0.22568
C         40.32589        50.25458         0.22447
C         39.11119        50.95197         0.25154
C         40.34019        53.06075         0.41402
C         39.14786        52.37830         0.31030
C         42.72084        20.39434         0.86907
C         41.49073        21.09243         0.93133
C         42.76394        23.25389         0.68806
C         41.53722        22.56456         1.26331
C         42.76512        24.65597         0.39210
C         41.54101        25.40249         0.28393
C         42.73811        27.38031        -0.52696
C         41.53606        26.72934        -0.26969
C         42.72985        28.65561        -1.33705
C         41.49128        29.49931        -1.06764
C         42.73818        31.66143        -0.97373
C         41.51193        30.89918        -1.10165
C         42.71741        33.03575        -0.81983
C         41.49605        33.79373        -0.97928
C         42.68855        35.96413        -0.45783
C         41.50313        35.18758        -0.99446
C         42.78735        37.39957        -0.91267
C         41.53993        38.15671        -1.17476
C         42.76147        40.28365        -0.75615
C         41.52027        39.58349        -0.78950
C         42.79969        41.69028        -0.63814
C         41.57335        42.41804        -0.46393
C         42.81463        44.55289        -0.54612
C         41.58953        43.80224        -0.45700
C         42.80972        45.96600        -0.50759
C         41.57100        46.69631        -0.24112
C         42.74437        48.86564        -0.58136
C         41.56243        48.07162        -0.10852
C         42.80239        50.26100        -0.01087
C         41.57064        50.95147         0.19588
C         42.82838        53.03999         0.45918
C         41.57910        52.36858         0.35860
C         43.91312        21.07727         0.79924
C         45.21009        23.16428         0.36221
C         43.95753        22.50804         0.63469
C         45.22234        24.56863         0.10277
C         44.00733        25.29349         0.10695
C         45.23648        27.25537        -0.87796
C         44.04131        26.79819        -0.03140
C         45.29477        28.75771        -0.92424
C         44.04339        29.43845        -1.26765
C         45.27736        31.59692        -0.67067
C         44.03342        30.95043        -1.08695
C         45.24011        33.02013        -0.30606
C         43.94254        33.77179        -0.43084
C         45.20638        35.90219        -0.56048
C         43.99605        35.23160        -0.58577
C         45.22379        37.36458        -0.60203
C         43.97300        38.06981        -0.83613
C         45.26568        40.24585        -0.68440
C         44.01851        39.54713        -1.17391
C         45.28544        41.68119        -0.71611
C         44.03414        42.41371        -0.74494
C         45.27707        44.55969        -0.73251
C         44.04557        43.82637        -0.66511
C         45.27655        45.94529        -0.71099
C         44.04453        46.69173        -0.60354
C         45.25233        48.86589        -0.56694
C         44.05034        48.10885        -0.53631
C         45.26720        50.23827        -0.23980
C         44.02619        50.94562         0.05464
C         44.01092        52.34522         0.35226
C         47.65122        23.10647         0.24681
C         46.44313        22.46122         0.40276
C         47.71361        24.50313        -0.00090
C         46.49561        25.22975        -0.11708
C         47.74229        27.31507        -0.48937
C         46.52968        26.61208        -0.43786
C         47.73636        28.75743        -0.60112
C         46.47997        29.46176        -0.76703
C         47.73225        31.62745        -0.45752
C         46.48575        30.91425        -0.68207
C         47.73804        33.05285        -0.33139
C         46.49339        33.78351        -0.38743
C         47.73284        35.89416        -0.45480
C         46.45498        35.16328        -0.49476
C         47.69341        37.38032        -0.34831
C         46.39350        38.08039        -0.42729
C         47.65638        40.22817        -0.07577
C         46.41649        39.52908        -0.39299
C         47.69061        41.67512        -0.23881
C         46.50116        42.36525        -0.62439
C         47.80448        44.54012        -0.63558
C         46.55234        43.81097        -1.05328
C         47.84111        45.97403        -0.75716
C         46.54385        46.67725        -0.97915
C         47.81103        48.94019        -0.87892
C         46.51195        48.18641        -0.97594
C         47.72150        50.34757        -0.45508
C         46.52934        50.93877        -0.18925
C         50.22197        24.51077        -0.09990
C         48.97521        25.18950        -0.14748
C         50.22759        27.28719        -0.42027
C         48.98697        26.60049        -0.32901
C         50.20644        28.74557        -0.60929
C         48.93172        29.48108        -0.52030
C         50.19144        31.61388        -0.14534
C         48.95231        30.91017        -0.42769
C         50.17230        33.03545         0.10054
C         48.94180        33.75544        -0.05823
C         50.08498        35.91370         0.37069
C         48.93978        35.18516         0.02109
C         50.09688        37.33283         0.43344
C         48.76168        38.03996         0.48547
C         50.02626        40.20408         0.68583
C         48.80443        39.52359         0.25940
C         50.04887        41.72479         0.54508
C         48.87619        42.39667        -0.02118
C         50.20231        44.49348        -0.07981
C         48.95603        43.81762        -0.27057
C         50.34538        45.92608        -0.53601
C         49.02811        46.67117        -0.60227
C         50.28610        48.79676        -0.10368
C         49.10258        48.14874        -0.70365
C         51.42017        25.18984        -0.19571
C         52.72956        27.33253        -0.28927
C         51.46072        26.60255        -0.33692
C         52.72501        28.73086        -0.06330
C         51.48961        29.50071        -0.30673
C         52.55223        31.59651         0.60314
C         51.38167        30.91170         0.06422
C         52.58604        33.05883         0.58332
C         51.36061        33.73527         0.41347
C         52.58586        35.92127         0.73552
C         51.28793        35.16728         0.87697
C         52.56547        37.32613         0.71701
C         51.30360        38.04642         0.62960
C         52.52029        40.20126         0.78679
C         51.31163        39.47347         0.70199
C         52.53527        41.64751         0.70337
C         51.35569        42.38418         0.49001
C         52.62025        44.49802         0.43865
C         51.37311        43.79289         0.27035
C         52.59230        45.95192         0.55134
C         51.45247        46.65524         0.20021
C         51.35578        48.08818         0.33315
C         55.17473        27.39211        -0.31720
C         53.98842        26.68160        -0.38138
C         55.17499        28.78437        -0.03982
C         53.92929        29.43007         0.15440
C         55.13260        31.63006         0.53210
C         53.91705        30.82941         0.60729
C         55.06728        33.04487         0.75230
C         53.82139        33.75216         0.77023
C         55.03787        35.92043         0.88780
C         53.81477        35.20143         0.80775
C         55.02397        37.35732         0.92693
C         53.79011        38.06328         0.83063
C         54.99167        40.21908         1.00655
C         53.77195        39.49566         0.86659
C         54.99034        41.65427         1.00812
C         53.78828        42.35509         0.76168
C         55.10217        44.54399         0.62330
C         53.79543        43.78540         0.64994
C         54.94225        45.91415         1.23796
C         53.77178        46.57684         1.14331
C         56.37063        29.57296         0.00313
C         56.33548        30.93778         0.21218
C         56.27223        33.81057         0.87338
C         56.25907        35.17795         0.94926
C         56.22676        38.11159         1.05909
C         56.21019        39.48391         1.10150
C         56.19099        42.41445         1.31020
C         56.24226        43.75863         1.20093
O         44.17445        30.32329        -2.43382
O         37.16025        46.14127         1.48925
O         29.43444        44.01881        -1.33653
O         28.94242        34.41739        -1.26406
O         51.04100        29.24763        -1.70461
O         48.70818        48.71514        -2.00816
O         48.07011        36.77555        -1.61742
O         44.43508        33.31681         0.90588
O         53.11753        31.01408         1.82396
O         39.64660        44.28925        -1.83789
O         36.21848        30.10080        -2.50051
O         35.96394        42.38388         1.22293
O         46.41836        47.43971        -2.23502
O         38.39929        31.41585        -2.61548
O         40.90307        37.96438        -2.49140
O         39.54349        35.43648        -2.50947
O         40.02556        24.35651         1.99320
O         49.80726        41.07606         1.85559
O         34.06096        42.92375        -1.66527
O         38.41849        33.32057         0.40877
O         50.81472        45.85083        -1.93793
H         50.05097        45.58072        -2.49156
O         46.61044        43.76339        -2.52900
H         46.51010        44.68370        -2.85703
O         44.06188        39.64512        -2.63584
H         43.24625        39.22637        -2.98750
O         35.01690        27.07828        -2.41822
H         35.55957        27.75228        -2.88479
O         42.42811        36.04999         1.00085
H         42.75615        35.21877         1.41011
O         35.45596        39.97140         1.80897
H         35.88631        40.78674         2.16456
O         44.98186        26.78109        -2.22906
H         45.63885        27.19043        -2.82947
O         44.26866        27.34865         1.31046
H         43.57872        26.98453         1.90480
O         28.47783        41.66143         2.61527
H         29.29540        41.12115         2.66635
O         42.57223        28.24594        -2.73277
H         42.89559        28.99880        -3.27899
O         31.68509        35.15365         1.81572
H         31.91486        36.05997         2.11635
O         51.06809        35.06279         2.33993
H         51.80376        34.52650         2.70704
O         48.28447        37.87287         1.86600
H         48.89478        38.36411         2.45698
O         36.62149        43.76973        -2.12657
H         37.55054        43.91544        -2.41349
O         42.49047        49.07491        -2.03200
H         43.32697        49.39872        -2.43106
O         55.43577        44.76481        -0.79232
H         54.67359        45.23034        -1.19932
O         40.57189        48.67894         1.95578
H         40.30175        47.77643         2.23211
O         40.39217        41.56261         1.37780
H         39.65498        40.98821         1.67794
O         35.16059        24.32800        -2.07159
H         35.06120        25.24585        -2.43207
O         41.74065        22.59734         2.71504
H         41.30743        23.42681         3.02916
H         27.26123        26.83727         1.73001
H         25.98500        28.93571         1.68115
H         25.86722        31.36299         1.28563
H         25.75881        33.22784         0.80953
H         25.70985        35.63976         0.70792
H         25.72018        37.58398         0.86600
H         25.79449        40.00367         1.20455
H         25.84234        41.92972         1.57098
H         25.73732        44.29979         1.04474
H         26.94265        46.44589         0.57621
H         29.36038        25.60633         1.40496
H         28.99868        47.69308         0.15447
H         33.02500        23.45460         0.65485
H         30.99869        24.68772         1.20682
H         32.80876        49.86642         0.14464
H         30.68619        48.68339         0.12284
H         34.49652        22.40710        -0.18810
H         34.47312        50.81337        -0.05739
H         36.52113        21.43259         0.66619
H         36.58534        51.99568         0.07295
H         40.27565        19.32506         0.72655
H         38.15211        20.51287         0.55028
H         40.34181        54.15461         0.52637
H         38.21094        52.95037         0.33752
H         42.71122        19.29495         0.82998
H         42.84115        54.12737         0.62196
H         44.84256        20.49603         0.75495
H         44.95293        52.90107         0.44300
H         48.57506        22.51823         0.32261
H         46.45781        21.38149         0.59769
H         48.64042        50.94884        -0.43530
H         46.53461        52.00209         0.08222
H         50.24834        23.41984         0.02256
H         50.30481        49.89320        -0.03930
H         52.35692        24.61985        -0.13201
H         52.20066        48.63508         0.77529
H         56.13298        26.87541        -0.47019
H         54.03028        25.60053        -0.57286
H         55.82734        46.40611         1.66889
H         53.69787        47.60587         1.52361
H         57.33402        29.07882        -0.18731
H         57.28045        31.49600         0.16016
H         57.23792        33.28987         0.91957
H         57.21676        35.70547         1.04692
H         57.19400        37.59727         1.12818
H         57.16474        40.01864         1.19020
H         57.07255        41.87905         1.69019
H         57.16322        44.30121         1.46221
