         349
 CSIRO Nanostructure Databank - Neutral Graphene Oxide Data Set
C          1.15911         3.91191         1.62921
C         -0.04450         4.49783         1.28948
C          1.09348         6.54553         0.59874
C         -0.07505         5.80026         0.75012
C          1.09760         7.89961        -0.09968
C         -0.19229         8.68701        -0.00811
C          1.03128        10.76463        -0.49004
C         -0.19840        10.01784        -0.21795
C          1.00604        12.10440        -0.99483
C         -0.21149        12.79821        -1.26399
C          1.00722        14.84827        -1.82335
C         -0.21383        14.11851        -1.63964
C          1.02157        16.27783        -1.91421
C         -0.16359        17.06015        -2.03786
C          1.07405        19.24507        -2.13299
C         -0.18506        18.43007        -2.07911
C          1.11024        20.47000        -1.19297
C         -0.04059        20.98790        -0.58793
C          1.19952        22.95380         0.18264
C          0.01420        22.21884         0.07698
C          1.18896        24.35561         0.76005
C          0.14274        24.59757         1.81998
C          1.52211        26.31353         2.88250
C          0.28890        25.57409         2.74498
C          1.63587        27.36467         3.81348
C          3.61849         4.00238         1.73672
C          2.37849         4.62321         1.44915
C          3.58204         6.69188         0.78182
C          2.34136         5.96632         0.95755
C          3.56499         8.03072         0.38275
C          2.24568         8.76851         0.42107
C          3.48877        10.79772        -0.48420
C          2.25464        10.12960        -0.24307
C          3.47175        12.11954        -0.98852
C          2.24156        12.78058        -1.26736
C          3.46701        14.76981        -2.26437
C          2.22935        14.11670        -1.77369
C          3.53115        16.27143        -2.21583
C          2.32124        16.96598        -1.57033
C          3.55168        19.13938        -1.77133
C          2.30427        18.42353        -1.88985
C          3.52684        20.64348        -1.71956
C          2.31333        21.19706        -1.08172
C          3.66163        23.14459        -0.25489
C          2.39244        22.43597        -0.39056
C          3.71831        24.34037         0.55789
C          2.55754        24.83466         1.18987
C          3.92617        26.52696         2.35525
C          2.66460        25.90394         2.11863
C          4.01693        27.58097         3.32407
C          2.85073        27.99796         4.02354
C          6.05718         4.03129         1.87910
C          4.84877         4.64912         1.51159
C          6.04487         6.68623         0.79091
C          4.84840         6.02040         1.00190
C          6.06399         8.06872         0.35946
C          4.77845         8.74927         0.14867
C          5.99855        10.84335        -0.32287
C          4.73122        10.08296        -0.27606
C          5.99108        12.26923        -0.74891
C          4.74707        12.75393        -1.41103
C          6.09411        14.71688        -2.56523
C          4.77281        14.02183        -2.20864
C          6.08902        16.24311        -2.78291
C          4.92546        16.87059        -1.97494
C          5.97759        19.32792        -2.45921
C          4.87476        18.41397        -1.88271
C          6.12571        20.53197        -1.51284
C          4.83438        21.34304        -1.51753
C          6.12316        23.25916        -0.65810
C          4.86872        22.60773        -0.75818
C          6.12817        24.60402        -0.06080
C          4.96501        25.01242         0.74021
C          6.36959        26.70615         1.90950
C          5.08293        26.10203         1.63088
C          6.44028        27.70530         2.94886
C          5.27423        28.15071         3.60379
C          8.45894         4.21789         2.31461
C          7.31104         4.69736         1.73291
C          8.57354         6.74850         0.97283
C          7.33813         5.89837         0.81614
C          8.58990         8.01365         0.15541
C          7.26282         8.73250         0.16136
C          8.51988        10.90478        -0.36394
C          7.27084        10.06554        -0.53337
C          8.52644        12.21820        -0.80127
C          7.27206        13.06562        -0.94397
C          8.59401        14.39269        -2.46387
C          7.31690        13.94847        -2.17344
C          8.67574        16.53998        -3.04168
C          7.31813        17.13962        -3.00800
C          8.55154        19.35170        -2.45128
C          7.29458        18.62151        -2.74525
C          8.57211        20.68320        -2.03655
C          7.35707        21.37991        -1.70504
C          8.62342        23.34773        -0.94376
C          7.34691        22.67340        -1.15061
C          8.69263        24.55914        -0.21185
C          7.47621        25.29197         0.19121
C          8.84203        26.85083         1.61454
C          7.55814        26.29769         1.27504
C          8.91393        27.78535         2.75146
C          7.69972        28.17867         3.35590
C         11.01410         4.30008         2.31578
C          9.70696         5.04472         2.44887
C         10.94709         7.02678         1.52872
C          9.70158         6.27345         1.56393
C         10.94420         8.36545         0.95733
C          9.76074         8.92145         0.45205
C         10.97253        11.02012        -0.01647
C          9.74883        10.27168         0.01889
C         10.98192        12.34213        -0.52609
C          9.77271        12.91968        -0.96136
C         10.96226        15.03597        -1.66182
C          9.77682        14.12284        -1.71811
C         11.00349        16.47826        -2.12178
C          9.80839        17.17992        -2.66616
C         11.10777        19.32676        -2.43076
C          9.82960        18.67394        -2.86873
C         11.05491        20.74385        -2.23889
C          9.84441        21.39299        -1.95006
C         11.06705        23.40167        -1.18429
C          9.83308        22.73417        -1.39554
C         11.14071        24.55790        -0.38431
C          9.93675        25.13940         0.12704
C         11.26729        26.96611         1.01994
C          9.97750        26.35801         0.90544
C         11.38375        28.17731         2.88442
C         10.07873        28.20831         3.44969
C         13.48323         4.42278         2.29058
C         12.19237         5.03339         2.24159
C         13.29851         7.40217         2.23425
C         12.11307         6.47356         2.01614
C         13.44730         8.23761         0.94963
C         12.18052         9.04479         0.76215
C         13.46312        10.92044        -0.25951
C         12.20145        10.33554         0.25200
C         13.55470        12.38626        -0.45794
C         12.23317        13.12356        -0.63911
C         13.48965        15.03643        -1.62216
C         12.26605        14.39654        -1.36280
C         13.50778        16.44575        -2.03143
C         12.32327        17.16141        -2.25890
C         13.60420        19.33012        -2.67746
C         12.30243        18.59624        -2.42122
C         13.59459        20.77872        -2.22400
C         12.30926        21.53905        -2.51172
C         13.59573        23.59938        -1.60276
C         12.28699        22.92972        -1.88283
C         13.62366        24.71025        -0.63730
C         12.43442        25.15261        -0.08171
C         13.73594        26.73956         1.38593
C         12.45563        26.32699         0.74850
C         13.80719        27.52291         2.67152
C         12.61404        27.98690         3.45360
C         15.90914         4.57227         2.58038
C         14.67172         5.17886         2.42912
C         15.88595         7.41102         2.40222
C         14.56832         6.67144         2.78919
C         15.92241         8.41832         1.29272
C         14.70389         9.05480         0.86679
C         16.04193        10.97167        -0.19369
C         14.78630        10.19848        -0.01585
C         16.00553        12.23873        -0.84797
C         14.79490        12.97331        -1.01284
C         15.97650        14.95155        -1.95565
C         14.72918        14.30084        -1.49716
C         15.99612        16.41914        -2.08334
C         14.79698        17.13394        -2.12867
C         16.07117        19.24831        -2.31666
C         14.83787        18.55840        -2.29717
C         16.06459        20.72883        -2.44987
C         14.80882        21.49112        -2.16832
C         16.09098        23.68430        -1.91149
C         14.85263        22.87794        -1.90099
C         16.08708        25.04914        -1.24077
C         14.79387        25.68051        -0.68467
C         16.18058        26.96922         1.03115
C         14.97821        26.48575         0.60229
C         16.31833        27.81739         2.22285
C         15.10313        28.24074         3.02553
C         18.37843         4.53871         3.10620
C         17.07307         5.28621         3.25128
C         18.43298         7.21167         2.11496
C         17.17393         6.72347         2.72615
C         18.45381         8.62535         1.67367
C         17.24516         9.09643         0.93112
C         18.51671        11.08391         0.06004
C         17.25061        10.40699         0.26179
C         18.53506        12.30206        -0.67146
C         17.30850        12.71610        -1.46398
C         18.54487        14.98726        -1.79848
C         17.28257        14.19779        -1.87726
C         18.53940        16.35963        -2.10330
C         17.27802        17.06149        -2.56939
C         18.55061        19.25176        -2.27918
C         17.29688        18.55655        -2.34470
C         18.60052        20.65063        -2.11316
C         17.40251        21.46244        -2.32451
C         18.65940        23.54962        -1.47529
C         17.41705        22.93784        -2.01950
C         18.67423        24.82639        -1.01285
C         17.40589        25.56737        -0.76123
C         18.76701        26.89554         0.97132
C         17.44648        26.42209         0.46728
C         18.77973        28.16138         1.80250
C         17.52373        28.29870         2.62190
C         19.51981         5.09546         2.65449
C         20.84182         7.06441         1.74087
C         19.58982         6.47746         2.18271
C         20.94245         8.35752         1.33564
C         19.77321         9.25872         1.31557
C         20.94726        11.16773         0.22327
C         19.74504        10.50204         0.49503
C         20.95069        12.40059        -0.41352
C         19.75030        12.98605        -0.87509
C         20.96858        15.04417        -1.56996
C         19.75648        14.33162        -1.44916
C         20.97765        16.37893        -1.91601
C         19.76771        17.08136        -2.13929
C         21.02311        19.22265        -2.39256
C         19.78449        18.50821        -2.30102
C         21.09702        20.56062        -2.14810
C         19.88348        21.29587        -1.77144
C         21.17598        23.55713        -1.50961
C         19.92318        22.76340        -1.44196
C         21.18284        24.87220        -1.25775
C         19.93721        25.67103        -0.97059
C         21.19775        26.92676         0.86185
C         20.03749        26.52089         0.28910
C         21.19702        27.72297         2.08223
C         20.06889        28.27119         2.58007
O         12.99165        13.14841         0.64084
O         14.03173        10.09367        -1.31106
O         10.72660        16.16089        -0.68916
O          4.37610        18.72976        -0.56121
O         12.79145        23.94093        -2.83372
O          5.90335        11.92577         0.67885
O         16.60818        14.32484        -3.18687
O         14.46470         6.64762         4.18555
O          8.75474        15.24472        -3.54985
O          4.09387        21.45479        -2.77679
O          7.21109        18.07328        -4.14760
O         16.81284        26.10462        -1.98744
O         16.86731        23.69816        -3.14876
O          4.79440        12.72449        -2.89128
O         19.90935        21.78696        -0.33451
O         16.63397         7.78695         3.58941
O          5.89639        15.33427        -3.88112
O         19.10096         9.52298         2.61351
O         13.90665        26.05933         2.72638
O          3.27345        15.62639        -3.46309
O          6.63254        25.67306        -0.94295
O         11.35610        28.27911         1.47639
O         16.77676        21.18114        -3.62659
O         18.15150        25.71240         1.56970
O         16.73705         7.99400         0.10596
O         13.68350        19.40833        -4.14481
H         13.08332        20.14867        -4.42514
O         17.25493        16.87594        -4.03291
H         17.08117        15.91383        -4.18175
O         14.90349        29.65708         2.85684
H         14.74379        29.83885         1.90787
O          6.35631        20.00250        -0.17547
H          6.38621        20.75580         0.45052
O          7.44302         5.32968        -0.55595
H          8.11669         4.61636        -0.52487
O         17.45237        11.95209        -2.70353
H         16.91153        12.41899        -3.38245
O         13.54900         7.30908        -0.17237
H         13.70992         7.84748        -0.98036
O         19.79587        26.61283        -2.08222
H         18.86752        26.59572        -2.40381
O          2.53094        16.78807        -0.10986
H          1.87084        17.34398         0.35578
O          9.68204         5.53748         3.83779
H         10.49279         6.07618         3.97132
O          9.88338        18.83885        -4.33740
H          9.00370        18.55955        -4.69208
O         16.72018         5.28578         4.64946
H         15.91170         5.88501         4.72739
O         18.76495        29.25757         0.83033
H         18.88284        30.09737         1.32141
O          0.80220        25.21835        -0.37452
H          0.88080        26.14864        -0.07352
O          1.36411         7.63973        -1.50293
H          0.63277         7.09429        -1.85916
O          7.23762         9.74141        -1.96509
H          7.89369         9.00877        -2.09816
O          1.16135        19.79975        -3.47956
H          0.44242        20.45713        -3.58555
O          7.31855        14.01151         0.17036
H          7.06059        13.51014         0.97788
O         12.91616         8.33183         3.26673
H         13.35250         7.95840         4.08860
O          5.50130        19.80885        -3.72180
H          5.83218        19.20565        -4.42737
O         14.34730        26.67063        -1.65919
H         15.13447        26.93019        -2.19279
O          1.96426         9.00273         1.83512
H          2.67606         9.57242         2.19505
O          8.78530         7.59962        -1.25711
H          8.23868         6.77719        -1.37061
O         12.28140        21.72248        -3.96685
H         12.66676        22.62090        -4.13071
O          5.28389        16.42229        -0.63760
H          4.72148        16.93533        -0.00508
H          1.18999         2.88682         2.02516
H         -0.98551         3.94565         1.41937
H         -1.04641         6.22165         0.45545
H         -1.14619         8.16452         0.15718
H         -1.15495        10.55965        -0.19932
H         -1.17328        12.28628        -1.12652
H         -1.17668        14.63136        -1.76653
H         -1.12303        16.53382        -2.15393
H         -1.13661        18.94136        -2.28687
H         -0.99878        20.45490        -0.66090
H         -0.92026        22.61698         0.49417
H         -0.81900        24.07026         1.75098
H         -0.53113        25.80329         3.44260
H          0.74900        27.66932         4.38780
H          3.61951         2.97675         2.13594
H          2.93231        28.81078         4.75904
H          6.02521         3.06401         2.40375
H          5.35717        28.92849         4.37732
H          8.40378         3.29575         2.91544
H          7.74189        28.88484         4.19880
H         11.04624         3.20908         2.45752
H          9.94546        28.57361         4.47962
H         13.53656         3.32829         2.41072
H         12.71677        27.96123         4.54858
H         16.01419         3.50203         2.33035
H         15.30927        28.08422         4.11566
H         18.38828         3.50108         3.47294
H         17.56509        28.94134         3.51640
H         20.44635         4.50168         2.62997
H         21.73505         6.42212         1.72994
H         21.90158         8.72542         0.94282
H         21.90051        10.73626         0.55698
H         21.91374        12.90496        -0.55742
H         21.92857        14.55271        -1.37206
H         21.94143        16.89995        -1.97026
H         21.94722        18.67947        -2.63126
H         22.06658        21.07556        -2.16317
H         22.12004        23.03372        -1.72082
H         22.12701        25.43257        -1.32672
H         22.16999        26.62983         0.44362
H         22.15624        27.86009         2.60285
H         20.09081        28.87411         3.50079
