         429
 CSIRO Nanostructure Databank - Neutral Graphene Oxide Data Set
C          5.05583         2.27247        -6.53173
C          4.85374         3.64187        -6.32432
C          5.74261         1.52025        -5.59171
C          5.30088         4.27222        -5.14948
C          4.22428         6.46522        -5.76046
C          3.87860         7.79410        -5.48156
C          4.97424         5.67396        -4.86707
C          4.10682         8.32226        -4.20294
C          2.76687        10.54238        -4.18480
C          2.61481        11.84841        -3.84996
C          4.02064         9.80595        -3.92213
C          3.68082        12.64031        -3.24594
C          2.45157        14.80879        -3.55914
C          2.36293        16.19709        -3.44221
C          3.58531        14.10105        -3.12510
C          3.41619        16.94553        -2.88733
C          3.36125        18.37967        -2.79015
C          6.24728         2.12998        -4.41550
C          5.97464         3.50600        -4.16380
C          7.15188         1.39148        -3.58945
C          6.45383         4.12722        -2.91171
C          5.34905         6.23552        -3.61249
C          4.71818         7.45098        -3.28541
C          6.33312         5.60293        -2.72230
C          5.99847         8.47292        -1.92652
C          4.99462        10.53296        -3.01571
C          4.80043        11.98608        -2.78354
C          6.02343         9.85017        -2.17941
C          6.05618        12.72896        -2.41057
C          4.67115        14.83770        -2.54724
C          4.58188        16.26163        -2.42659
C          5.85397        14.18434        -2.09784
C          5.67382        17.00759        -1.89848
C          4.41433        19.09759        -2.29748
C          5.61573        18.44373        -1.84526
C          7.89831         2.00776        -2.59505
C          7.53581         3.36695        -2.14192
C          8.98305         1.36197        -1.95341
C          8.51666         4.12958        -1.36611
C          7.15254         6.26017        -1.80816
C          7.13552         7.70804        -1.61567
C          8.15395         5.52865        -0.91329
C          8.28733         8.43797        -1.20219
C          7.10158        10.56381        -1.63209
C          6.83219        12.01034        -1.23904
C          8.21791         9.85291        -1.14419
C          8.07656        12.78005        -0.85222
C          6.89181        14.90073        -1.48420
C          6.83360        16.33465        -1.42880
C          8.03771        14.22590        -0.89859
C          7.94713        17.08701        -0.96099
C          6.71234        19.17092        -1.37397
C          7.90113        18.51908        -0.94354
C          9.82984         2.05039        -1.07911
C          9.64676         3.48795        -0.86536
C         10.87026         1.34960        -0.41890
C         10.63123         4.20480        -0.10541
C          9.40445         6.33799        -0.57989
C          9.44608         7.70551        -0.71587
C         10.54331         5.61488         0.01313
C         10.74477         8.44561        -0.39701
C          9.37162        10.65798        -0.68522
C          9.15789        12.08821        -0.35683
C         10.61920         9.96915        -0.23826
C         10.25393        12.80045         0.30763
C          9.13026        14.97558        -0.46700
C          9.13248        16.41399        -0.53227
C         10.24519        14.30094         0.22293
C         10.24738        17.16186        -0.10689
C          9.04248        19.24473        -0.51743
C         10.21737        18.58511        -0.11506
C         11.84895         1.95704         0.37802
C         11.62678         3.43492         0.74137
C         12.76340         1.11547         1.06652
C         12.82369         4.27928         1.10171
C         11.53417         6.35088         0.71383
C         11.38545         7.84679         0.86702
C         12.63966         5.69497         1.33215
C         12.69172         8.58100         1.12890
C         11.56368        10.70984         0.65623
C         11.50954        12.11660         0.70264
C         12.62311        10.05737         1.30888
C         12.55998        12.85397         1.28644
C         11.56324        14.99350         0.28762
C         11.52101        16.47878         0.20128
C         12.77960        14.31250         0.93244
C         12.60431        17.22688         0.87595
C         11.40649        19.30828         0.26839
C         12.54691        18.68667         0.75407
C         14.04427         1.58898         1.49116
C         14.08804         3.77580         1.32003
C         14.90239         1.28972         2.52723
C         15.02322         4.33460         2.24513
C         13.63506         6.39670         2.02310
C         13.79430         7.83341         1.84677
C         14.60777         5.63411         2.87966
C         14.64555         8.59248         2.75323
C         13.63810        10.78900         1.97046
C         13.63088        12.20857         1.94566
C         14.81906        10.04654         2.49835
C         14.71357        13.02988         2.54434
C         13.35151        15.13522         2.10127
C         13.54453        16.58714         1.63676
C         14.60375        14.41314         2.64677
C         14.48271        17.44424         2.45034
C         13.69541        19.43516         1.17101
C         14.72911        18.81817         1.85221
C         16.05098         2.12905         2.87794
C         16.03011         3.59768         2.84437
C         17.14463         1.52245         3.46821
C         17.03537         4.33153         3.69630
C         15.74941         6.47652         3.36779
C         15.42606         7.81231         3.62036
C         16.94622         5.81620         3.95949
C         17.23353         8.93750         4.24712
C         16.00724        10.83654         2.96609
C         15.94419        12.33628         2.94880
C         17.14027        10.23163         3.73324
C         17.11067        13.04412         3.16353
C         15.75363        15.22685         3.13276
C         15.77967        16.70536         2.84502
C         17.04297        14.49928         3.55656
C         17.06853        17.30227         2.28395
C         15.93967        19.50555         2.13956
C         17.11665        18.80631         2.40903
C         18.35504         2.25888         3.73139
C         18.35469         3.66412         3.81698
C         19.58245         1.56640         3.73085
C         19.57286         4.40089         3.89723
C         18.28779         6.57276         4.41207
C         18.37935         8.09186         4.15130
C         19.55604         5.84257         3.90138
C         19.59858         8.70955         3.82748
C         18.35805        10.99081         3.81324
C         18.38121        12.38771         3.39833
C         19.69009        10.17017         3.88866
C         19.60877        13.03020         3.36649
C         18.34841        15.28815         3.28864
C         18.36212        16.63713         2.68929
C         19.65154        14.50517         3.29046
C         19.56732        17.27559         2.39210
C         18.36469        19.44250         2.51500
C         19.59020        18.75648         2.36052
C         20.80221         2.23797         3.74874
C         20.82142         3.67950         3.86281
C         21.94669         1.41808         3.35494
C         22.02945         4.44589         3.75346
C         20.75366         6.54279         3.62142
C         20.79691         7.98305         3.53044
C         21.99833         5.83488         3.46630
C         22.00437         8.66949         3.23500
C         20.87893        10.87279         3.41593
C         20.84641        12.28597         3.27679
C         22.04897        10.11539         3.16581
C         22.05826        12.96785         2.94768
C         20.85149        15.12604         2.71930
C         20.78745        16.47448         2.31290
C         22.06031        14.38744         2.66833
C         21.96997        16.96263         1.69709
C         20.77110        19.54924         2.43797
C         22.01178        19.13080         1.91606
C         23.24139         1.70316         3.65357
C         23.33321         3.87971         3.88543
C         24.39308         1.27076         2.89025
C         24.48138         4.39483         3.31101
C         23.21614         6.51058         3.10728
C         23.21085         7.93528         2.97347
C         24.42863         5.76709         2.84879
C         24.42143         8.63070         2.66582
C         23.27365        10.81311         2.93884
C         23.26177        12.22847         2.85861
C         24.49357        10.06421         2.71818
C         24.53791        12.97049         2.82582
C         23.29054        15.05964         2.35145
C         23.22398        16.40463         1.87034
C         24.53230        14.39182         2.45290
C         24.44331        17.19252         1.42816
C         23.32173        19.47087         2.23713
C         24.47011        18.69248         1.84941
C         25.49354         2.04913         2.69711
C         25.67670         3.41325         3.37926
C         26.48817         1.41507         1.69997
C         26.60795         4.38540         1.29262
C         25.54777         6.45397         2.27221
C         25.59211         7.88812         2.32124
C         26.68352         5.73532         1.72632
C         26.80937         8.59202         2.06258
C         25.72083        10.72902         2.49571
C         25.83054        12.18324         2.73884
C         26.88269        10.00279         2.09867
C         27.15085        12.91023         2.47168
C         25.75700        15.09871         2.17968
C         25.70516        16.47848         1.87397
C         26.99825        14.36604         2.06066
C         26.92837        17.24281         1.87236
C         25.68469        19.35724         1.77809
C         26.92568        18.68062         1.54127
C         27.76156         2.15280         1.35041
C         27.77779         3.58123         1.22659
C         28.92662         1.43607         1.14869
C         29.04243         4.24161         1.13344
C         27.95338         6.37712         1.62183
C         28.04030         7.81917         1.87883
C         29.09877         5.67300         1.23392
C         29.26368         8.56047         1.30530
C         28.07068        10.71485         1.62571
C         28.11315        12.13715         1.59545
C         29.15803        10.00014         1.07026
C         29.20621        12.81208         1.01597
C         28.14441        14.99225         1.56715
C         28.24879        16.44735         1.63797
C         29.25725        14.25585         1.02982
C         29.32983        17.14967         0.96072
C         28.09645        19.30847         1.16852
C         29.29603        18.57537         0.83212
C         30.16544         2.08209         0.81986
C         30.20604         3.49798         0.86905
C         31.33130         1.35363         0.46712
C         31.52333         4.21642         0.77076
C         30.27047         6.35445         0.70964
C         30.24563         7.78992         0.54638
C         31.35634         5.62215         0.27499
C         31.21627         8.45810        -0.19669
C         30.24289        10.64903         0.41632
C         30.28921        12.08525         0.41275
C         31.28938         9.88736        -0.18545
C         31.42799        12.76213        -0.08680
C         30.35705        14.94303         0.47743
C         30.39173        16.38928         0.42859
C         31.47833        14.20745        -0.04719
C         31.50976        17.06646        -0.13704
C         30.40303        19.22779         0.27262
C         31.52871        18.49885        -0.19130
C         32.52944         1.99842         0.05207
C         32.59770         3.44554         0.05315
C         33.63058         1.27311        -0.43126
C         33.70918         4.11500        -0.43189
C         32.25581         6.13434        -0.81526
C         32.21449         7.66003        -0.95128
C         33.65670         5.54691        -0.72672
C         33.43828         8.38178        -1.41973
C         32.43636        10.56672        -0.75522
C         32.51658        12.02344        -0.66800
C         33.50900         9.84432        -1.25419
C         33.66820        12.69095        -1.12109
C         32.60645        14.89505        -0.51763
C         32.63230        16.32054        -0.60292
C         33.88271        14.14089        -0.76397
C         33.75244        17.00025        -1.15866
C         32.66681        19.15309        -0.72681
C         33.76404        18.42577        -1.21551
C         34.84236         1.92380        -0.82448
C         34.89795         3.38314        -0.80712
C         35.96064         1.20155        -1.20239
C         36.06741         4.06335        -1.13385
C         34.76900         6.20459        -1.16303
C         34.70355         7.60172        -1.65749
C         36.12604         5.56579        -0.94693
C         35.97437         8.34550        -1.89902
C         34.65635        10.51060        -1.96749
C         34.75455        11.98608        -1.70403
C         36.00071         9.84183        -1.64828
C         35.88407        12.62833        -2.20532
C         34.81555        14.86228        -1.69862
C         34.83422        16.24457        -1.75460
C         35.79574        14.07877        -2.44173
C         35.95083        16.94490        -2.37747
C         34.92046        19.09557        -1.75322
C         35.98643        18.40252        -2.28987
C         37.31124         1.84261        -1.33697
C         37.26078         3.35390        -1.48068
C         38.17473         1.24671        -2.42470
C         38.40318         4.03006        -1.88622
C         37.30132         6.23051        -1.64060
C         37.29089         7.64956        -1.84808
C         38.43054         5.47018        -1.94878
C         38.40633         8.36618        -2.28223
C         37.14709        10.52327        -2.36980
C         37.06223        11.90524        -2.62791
C         38.32524         9.77865        -2.63889
C         38.21493        12.60876        -3.14192
C         36.97447        14.79794        -3.07083
C         37.02351        16.25618        -2.91117
C         38.22347        14.02888        -3.28895
C         38.15685        16.96644        -3.60839
C         37.19842        19.08260        -2.68282
C         38.28898        18.40878        -3.17316
C         39.27192         1.89388        -2.82658
C         39.65073         3.22506        -2.21608
C         40.62136         3.99201        -3.08119
C         39.69426         6.14001        -2.31733
C         39.70116         7.67443        -2.42655
C         40.69196         5.32989        -3.05881
C         40.75164         8.36893        -3.18469
C         39.43982        10.44135        -3.21909
C         39.40403        11.86317        -3.42287
C         40.61524         9.66787        -3.54844
C         40.56043        12.58257        -3.83923
C         39.41116        14.72403        -3.59595
C         39.45725        16.18638        -3.59283
C         40.57352        13.95825        -3.89138
C         40.63675        16.88365        -3.65301
C         39.55760        19.05911        -3.36832
C         40.68082        18.31861        -3.61127
O         35.83717        14.36259        -3.89522
O         25.32470        12.61528         4.04571
O          6.00069        11.96332        -0.13665
O         27.86806        16.95614         2.95075
O         11.93552        15.63334        -0.97182
O          5.25915        10.39626        -4.49723
O         15.64311        16.28638         4.21866
O         35.19355         7.83590        -3.04254
O         13.83857         8.17329         0.38456
O         23.48372         2.69388         4.62101
O         14.48865         2.63079         0.64202
O          4.74785         7.84412        -1.94581
O         32.34060         8.03042        -2.36686
O         40.21895         6.97882        -1.23214
O         29.15650         8.20321         2.72952
O         21.88844        18.12349         0.92560
O         19.08567        10.77274         5.06115
O         10.56873        10.56267        -1.58869
O          6.13646         3.42206        -1.65758
O          9.82462        13.64761         1.45510
O         16.51751         4.83464         5.00701
O         16.04530         8.38905         4.71960
O         19.20246        15.22453         4.48752
O         26.70111         3.68044         3.97119
O         15.99496        10.27556         1.58222
O         24.45411        17.20498        -0.03464
H         23.61933        17.64778        -0.30887
O         37.76383        17.00672        -5.02793
H         36.84549        17.34855        -5.07070
O         10.52623         8.12615         1.99559
H          9.74664         7.53225         1.95205
O         18.34658         6.43846         5.84551
H         17.80600         5.64970         6.09045
O         40.35767         2.95145        -0.97167
H         40.61859         3.81355        -0.58500
O         34.58625        14.12034         0.54270
H         33.98405        13.69615         1.19127
O         16.94010        14.33670         4.99569
H         16.85464        15.23200         5.39117
O         31.67130         5.58009        -2.03494
H         31.85693         6.23714        -2.74886
O         25.42407         3.85119         0.87522
H         24.72220         4.53414         0.91593
O         13.84004        14.26774        -0.05397
H         13.53394        14.79763        -0.83117
O         12.37440        15.20616         3.16177
H         12.58284        16.00386         3.70242
O         34.38804        10.39104        -3.38700
H         34.37902         9.42741        -3.61003
O         16.92699        17.01216         0.84727
H         17.63126        17.50094         0.37035
O          7.44941         5.31959         0.36213
H          6.66629         4.75912         0.15732
O         10.91803         3.30976         2.04013
H         10.03264         2.92724         1.85822
O         37.97991         1.54692        -0.06433
H         37.43416         1.93471         0.65160
O         11.64968         8.19924        -1.48775
H         11.51091         8.92389        -2.14054
O         26.79934         0.09899         2.16920
H         27.23367         0.18118         3.04319
O         13.72194        17.72085         3.67313
H         14.24957        17.35925         4.42737
O         13.87727         5.22839         4.09684
H         14.55743         4.88910         4.72936
O         32.01597         4.33861         2.16156
H         31.96447         3.44825         2.57005
O          6.92769        12.65513        -3.56694
H          6.62887        11.91480        -4.14256
O         27.84621        12.95788         3.75801
H         27.15512        13.12096         4.44185
O         36.21742        10.00737        -0.22048
H         37.11856         9.68611        -0.00553
O         36.40662         5.77593         0.49074
H         37.29023         5.39134         0.67552
H          4.67944         1.80019        -7.44957
H          4.31401         4.21524        -7.08897
H          5.93702         0.45253        -5.76615
H          3.95136         6.06092        -6.74403
H          3.40675         8.40952        -6.25993
H          1.91849         9.98399        -4.60778
H          1.64978        12.33133        -4.05906
H          1.60427        14.27029        -4.00495
H          1.46029        16.71510        -3.79741
H          2.45336        18.89463        -3.13761
H          7.38660         0.35397        -3.87063
H          4.36109        20.19499        -2.24347
H          9.17682         0.30084        -2.16895
H          6.66360        20.26994        -1.34662
H         10.94904         0.26747        -0.60774
H          9.01442        20.34462        -0.52546
H         12.51427         0.04562         1.16040
H         11.38162        20.40781         0.22122
H         14.73581         0.39059         3.13928
H         13.77871        20.49497         0.88474
H         17.17376         0.42739         3.56499
H         15.98454        20.59498         1.98397
H         19.57387         0.47512         3.59636
H         18.38629        20.54039         2.58707
H         21.73374         0.56942         2.68718
H         20.68878        20.54266         2.90546
H         24.31003         0.32477         2.33048
H         23.50585        20.37402         2.83956
H         25.91598         1.27258         0.74026
H         25.70145        20.45316         1.88551
H         28.90388         0.34001         1.23924
H         28.09353        20.39542         0.99597
H         31.28387         0.25497         0.43484
H         30.39764        20.32390         0.17882
H         33.58502         0.17432        -0.46466
H         32.68468        20.25242        -0.76715
H         35.92333         0.10116        -1.18308
H         34.95511        20.19483        -1.71099
H         37.90137         0.26740        -2.84565
H         37.27481        20.16168        -2.47502
H         39.93442         1.46459        -3.59404
H         41.36909         3.41310        -3.64526
H         41.48332         5.84839        -3.61980
H         41.69236         7.84077        -3.39169
H         41.44111        10.14924        -4.08884
H         41.48388        12.04364        -4.08784
H         41.50038        14.46501        -4.19137
H         41.59844        16.35324        -3.70165
H         39.62102        20.15040        -3.24383
H         41.65643        18.81392        -3.71460
