         420
 CSIRO Nanostructure Databank - Neutral Graphene Oxide Data Set
C         27.94560        27.58352         0.10952
C         27.92801        28.98927         0.38433
C         26.71083        29.70882         0.61570
C         27.95484        31.68584         1.52713
C         26.69689        31.00114         1.05424
C         27.97171        33.20968         1.42383
C         26.77373        33.93556         1.38010
C         27.97951        36.04548         1.22203
C         26.77282        35.32526         1.29803
C         27.98021        37.48739         0.98713
C         26.82267        38.28080         1.18602
C         27.94834        40.27870         0.33634
C         26.81565        39.63377         0.89368
C         27.93908        41.68702        -0.01883
C         26.86435        42.54602         0.30372
C         28.01391        44.43074        -0.74276
C         26.89403        43.87482        -0.09382
C         28.01075        45.85080        -1.02682
C         30.37509        27.66589        -0.49185
C         29.09803        26.91945        -0.19572
C         30.39538        29.01521         0.18666
C         29.17649        29.69002         0.48649
C         30.40973        31.72419         1.03849
C         29.18805        31.03789         0.93463
C         30.42536        33.10250         1.46230
C         29.20746        33.90847         1.46807
C         30.41857        36.12133         1.05775
C         29.21670        35.34590         1.32300
C         30.38615        37.39201         0.41749
C         29.14526        38.11998         0.49297
C         30.23526        40.04257        -0.58942
C         29.12557        39.50012         0.13553
C         30.00683        41.27355        -1.20671
C         29.03199        42.21408        -0.77036
C         30.37670        44.29424        -1.43346
C         29.15004        43.62638        -1.06895
C         30.38215        45.77066        -1.79824
C         29.09248        46.48391        -1.51462
C         32.88047        24.77986        -0.65098
C         31.69385        25.51326        -0.66935
C         32.86234        27.50048         0.08174
C         31.65699        26.86586        -0.30526
C         32.86279        28.90760         0.38797
C         31.62310        29.64681         0.44428
C         32.89058        31.67351         1.03472
C         31.64060        31.01641         0.85327
C         32.91253        33.05229         1.36561
C         31.68162        33.62401         1.76648
C         32.88944        36.06377         0.77109
C         31.70277        35.67222         1.41042
C         32.81479        37.25863        -0.01519
C         31.58850        37.96085        -0.10352
C         32.83192        40.03260        -1.12931
C         31.50277        39.28786        -0.79009
C         32.90760        41.52049        -1.18381
C         31.81876        42.27514        -1.61159
C         32.86517        44.40932        -1.12429
C         31.65722        43.67669        -1.41324
C         32.82414        45.83998        -1.03334
C         31.59965        46.52754        -1.26616
C         32.75339        48.64784        -0.90196
C         31.59081        47.92289        -1.17059
C         35.37379        23.22340        -0.65542
C         35.35325        24.63261        -0.27029
C         34.10392        25.36677        -0.27452
C         35.30870        27.34755         0.53647
C         34.09814        26.74848         0.11283
C         35.25235        28.73773         1.02252
C         34.06219        29.55132         0.74456
C         35.34914        31.65692         1.19889
C         34.11417        30.94571         0.99444
C         35.34211        33.10433         1.16590
C         34.11769        33.83120         1.23534
C         35.32251        35.87215         0.65083
C         34.10640        35.25291         0.94905
C         35.33728        37.19756        -0.01752
C         34.08465        37.84877        -0.52033
C         35.31613        40.12256        -0.40148
C         34.18312        39.31085        -1.03008
C         35.28117        41.53533        -0.52923
C         34.09811        42.24578        -0.84246
C         35.25553        44.46610        -0.62595
C         34.07727        43.70330        -0.88728
C         35.24929        45.87270        -0.57930
C         34.01967        46.57373        -0.76037
C         35.23301        48.74110        -0.62764
C         33.99529        48.00520        -0.73144
C         35.24104        50.17532        -0.56816
C         37.78136        22.93749         0.00281
C         36.46565        22.44701        -0.54630
C         37.86652        24.51222        -0.11877
C         36.54693        25.25093         0.09409
C         37.77482        27.30306         0.80806
C         36.55147        26.63892         0.49125
C         37.79593        28.68773         1.29576
C         36.53000        29.47915         1.37107
C         37.82893        31.63837         1.20221
C         36.56720        30.94859         1.26482
C         37.82587        33.08581         1.06530
C         36.58480        33.79551         1.01959
C         37.79819        35.87672         0.43019
C         36.57128        35.19429         0.74436
C         37.81642        37.29944         0.20336
C         36.52006        38.03898         0.38534
C         37.76612        40.13965         0.03814
C         36.52944        39.46030        -0.10305
C         37.74984        41.60277         0.12800
C         36.54847        42.28661        -0.42501
C         37.71485        44.53248         0.12467
C         36.55475        43.77480        -0.50672
C         37.72924        45.96430        -0.33892
C         36.50151        46.61713        -0.49675
C         37.71289        48.76086        -0.71100
C         36.47910        48.04958        -0.62307
C         37.67384        50.22115        -0.92262
C         36.39152        50.89296        -0.69283
C         40.10678        20.97903        -2.46606
C         38.92199        21.47244        -1.90013
C         40.25178        22.59088        -0.28946
C         38.96534        22.28499        -0.75167
C         40.29514        24.58368         0.70819
C         39.03649        25.20803         0.59499
C         40.29094        27.32700         0.83099
C         39.03337        26.61741         0.73830
C         40.33282        28.74917         0.86177
C         39.09435        29.46658         1.22884
C         40.32824        31.61793         1.06307
C         39.03119        30.92724         1.12129
C         40.33206        33.11713         0.99091
C         39.03137        33.79925         0.87901
C         40.25843        35.80339         0.04935
C         39.00905        35.15380         0.47941
C         40.25578        37.30384        -0.16302
C         38.99366        38.01793         0.05841
C         40.25600        40.17224        -0.00820
C         39.00689        39.46097         0.08932
C         40.29555        41.60127         0.01966
C         39.04398        42.35850         0.19165
C         40.21388        44.50249        -0.20732
C         39.03157        43.81303        -0.05617
C         40.20626        45.95169        -0.35175
C         38.96763        46.66010        -0.43076
C         40.20514        48.79721        -0.63044
C         38.95171        48.08338        -0.62164
C         40.24257        50.23387        -0.64822
C         38.99748        51.00209        -0.85724
C         40.14959        53.06814        -0.17368
C         39.00177        52.41445        -0.39634
C         42.64172        20.94109        -2.54667
C         41.37794        21.43984        -2.05055
C         42.65939        23.23277        -0.84791
C         41.43475        22.38273        -0.99568
C         42.68619        24.57048        -0.13265
C         41.51509        25.22957         0.50804
C         42.77576        27.33484         0.61481
C         41.52862        26.64340         0.62952
C         42.78123        28.74736         0.62883
C         41.53580        29.43681         0.68134
C         42.80682        31.62531         0.62817
C         41.49722        30.91389         0.40134
C         42.81516        33.03364         0.62643
C         41.58505        33.79302         0.59182
C         42.75602        35.92823         0.20456
C         41.55835        35.15173         0.30278
C         42.76198        37.31115        -0.04767
C         41.52456        38.05063        -0.11783
C         42.72458        40.18309        -0.59285
C         41.48617        39.44060        -0.15677
C         42.74806        41.63846        -0.20551
C         41.50032        42.33381        -0.09104
C         42.68255        44.49599        -0.16478
C         41.48718        43.78909        -0.14741
C         42.69684        45.93404        -0.34005
C         41.43242        46.65579        -0.44277
C         42.68571        48.81687        -0.68118
C         41.41730        48.06894        -0.57137
C         42.68099        50.25067        -0.34591
C         41.44004        50.93458        -0.43411
C         42.64355        53.02373         0.21196
C         41.47062        52.44442        -0.53459
C         43.83540        21.39336        -2.03949
C         45.16457        23.18066        -0.90055
C         43.94081        22.56519        -1.20755
C         45.20894        24.66521        -0.57768
C         43.97693        25.24550         0.08131
C         45.27512        27.29677         0.51209
C         44.01251        26.58631         0.45132
C         45.29494        28.73588         0.97515
C         44.02065        29.48849         0.65118
C         45.31463        31.61125         0.99466
C         44.02130        30.87992         0.67928
C         45.28801        33.06158         0.56512
C         44.05962        33.73878         0.53323
C         45.29308        35.95136         0.25349
C         44.01125        35.21401         0.49698
C         45.25270        37.37368        -0.12336
C         44.01621        38.05220        -0.14246
C         45.22567        40.18332        -0.29641
C         44.01106        39.46029        -0.29353
C         45.21639        41.62382        -0.24515
C         43.96326        42.31353        -0.14393
C         45.22220        44.45474        -0.21751
C         43.95828        43.77584         0.22527
C         45.17831        45.87202        -0.49083
C         43.91008        46.60765        -0.41350
C         45.21123        48.79664        -0.17252
C         43.99524        48.06572        -0.61788
C         45.13017        50.20427         0.07745
C         43.88139        50.91389        -0.00661
C         43.78024        52.31486         0.38194
C         47.63159        23.20490        -0.91132
C         46.42123        22.56623        -1.14834
C         47.72795        24.49329        -0.33299
C         46.45048        25.11104         0.19457
C         47.72186        27.31988         0.37611
C         46.47328        26.63039         0.30127
C         47.77154        28.73677         0.41500
C         46.55275        29.47731         0.57030
C         47.76659        31.58999         0.29722
C         46.55790        30.86660         0.55748
C         47.73746        33.01781         0.14352
C         46.50825        33.71519         0.24480
C         47.73215        35.88641        -0.46153
C         46.46071        35.13308        -0.15129
C         47.72550        37.36377        -0.34948
C         46.47896        38.06781        -0.27721
C         47.71261        40.20785        -0.28063
C         46.47642        39.49157        -0.29650
C         47.69402        41.63706        -0.20940
C         46.45119        42.32848        -0.19509
C         47.68303        44.50638        -0.09472
C         46.43633        43.77819        -0.22006
C         47.68118        45.89120         0.05376
C         46.51404        46.67051        -0.32188
C         47.61692        48.79000         0.39904
C         46.42017        48.10877         0.00846
C         47.52810        50.20210         0.58672
C         46.33732        50.87340         0.44070
C         50.21186        24.49555        -0.25850
C         48.95648        25.12828        -0.06019
C         50.30411        27.30643         0.33614
C         48.96116        26.53138         0.41120
C         50.25302        28.76680         0.16846
C         49.01608        29.45317         0.26895
C         50.22290        31.59929        -0.02165
C         48.99655        30.88230         0.16492
C         50.20819        33.02577        -0.11535
C         48.96633        33.73420        -0.10431
C         50.19723        35.85354        -0.37179
C         48.98574        35.13984        -0.29661
C         50.17602        37.30883        -0.61039
C         48.92476        38.06846        -0.40837
C         50.19207        40.22023        -0.24881
C         48.94995        39.49881        -0.32235
C         50.18186        41.64096        -0.14026
C         48.93594        42.35868        -0.12370
C         50.15843        44.48668         0.14227
C         48.92581        43.76772         0.01819
C         50.16231        45.90122         0.36272
C         48.85110        46.57835         0.69894
C         50.08862        48.74012         0.65734
C         48.85107        48.08089         0.52633
C         51.41947        25.17805        -0.24482
C         52.71243        27.31604        -0.29085
C         51.50681        26.58127        -0.09490
C         52.70067        28.74720        -0.22297
C         51.46682        29.46418        -0.07027
C         52.68824        31.61841        -0.24636
C         51.46277        30.89912        -0.12462
C         52.68378        33.04441        -0.24098
C         51.43459        33.74685        -0.20951
C         52.66414        35.90819        -0.13186
C         51.42920        35.16889        -0.28723
C         52.66806        37.29298        -0.08513
C         51.49014        38.06744        -0.47494
C         52.64771        40.21250        -0.04187
C         51.44792        39.52829        -0.22450
C         52.66880        41.63884         0.00132
C         51.41893        42.36410        -0.07766
C         52.62613        44.55436        -0.06430
C         51.38560        43.77943         0.00923
C         52.63727        45.97118         0.31377
C         51.36067        46.63579         0.47614
C         51.29173        48.04973         0.68366
C         55.13578        27.33788        -0.60759
C         53.95948        26.64532        -0.51515
C         55.15498        28.76620        -0.52259
C         53.92621        29.47221        -0.35245
C         55.16941        31.59267        -0.43136
C         53.93847        30.90220        -0.32866
C         55.21241        33.10079        -0.52831
C         53.90394        33.77996        -0.20650
C         55.12603        35.87261         0.30769
C         53.90542        35.16922         0.00515
C         55.12600        37.27206         0.49623
C         53.82082        38.04486         0.51911
C         55.11976        40.18567         0.56186
C         53.95945        39.44817        -0.08424
C         55.09419        41.60982         0.59730
C         53.90672        42.30792         0.21387
C         55.12817        44.50201         0.56988
C         53.97421        43.76268         0.05800
C         55.07463        45.89509         0.64080
C         53.86611        46.60610         0.50700
C         56.36356        29.48249        -0.63316
C         56.36396        30.87217        -0.58681
C         56.35317        33.74942         0.21740
C         56.31896        35.06805         0.51404
C         56.27688        38.02437         0.80078
C         56.24446        39.42183         0.90806
C         56.24490        42.37369         0.99891
C         56.25557        43.74666         1.01171
O         40.36109        23.21320         0.96297
O         38.35763        50.72552        -2.13691
O         44.82221        35.76460         1.62625
O         36.89505        42.98820        -1.69109
O         38.25191        42.04230         1.45015
O         35.67213        28.93742         2.42764
O         38.59052        28.91919         2.50887
O         53.45848        44.23834        -1.22063
O         49.76104        26.79631         1.60466
O         31.77794        34.80765         2.50783
O         40.58107        32.39257         2.26956
O         32.03300        39.35952        -2.15231
O         30.78928        41.63600        -2.30974
O         43.45428        48.51704        -1.91076
O         45.98385        46.31303        -1.63178
O         40.18529        36.36969        -1.30408
O         50.93882        37.71114        -1.79269
O         42.46525        24.49104        -1.64850
O         34.92422        37.01859        -1.40034
O         46.86104        35.37687        -1.53877
O         34.63347        39.24469        -2.40773
H         33.89235        38.87024        -2.93421
O         41.19614        31.03226        -1.03742
H         41.93069        30.61173        -1.53299
O         36.32680        38.17597         1.84537
H         37.08020        38.69643         2.19835
O         41.68583        52.76354        -1.95059
H         42.46628        52.25122        -2.25166
O         42.62623        40.18550        -2.07159
H         43.41211        40.66049        -2.41728
O         45.39337        31.61443         2.47190
H         44.66169        32.17869         2.80456
O         45.25262        25.30539        -1.88916
H         44.37212        25.14128        -2.30353
O         28.02179        31.40841         2.97697
H         28.07263        30.43477         3.08491
O         38.18336        24.71905        -1.53241
H         38.17237        25.68246        -1.71334
O         46.29623        24.60909         1.55275
H         47.02020        24.98153         2.09932
O         37.81236        22.54001         1.38140
H         38.72819        22.68089         1.71677
O         30.54004        45.80296        -3.26195
H         31.33035        45.26668        -3.48673
O         37.45029        44.60315         1.56153
H         37.67296        43.71137         1.93258
O         48.67129        46.37417         2.16205
H         49.43652        46.80067         2.60429
O         54.30590        39.26914        -1.48439
H         54.32169        40.15157        -1.91052
O         55.45916        33.37784        -1.95619
H         55.43168        34.35188        -2.07258
O         45.32629        28.69190         2.44450
H         45.39472        29.63051         2.75030
O         30.32883        27.94464        -1.94560
H         29.52999        28.49029        -2.10889
O         43.98304        43.82833         1.70574
H         43.20296        43.32711         2.02683
O         53.48278        38.24564         1.92931
H         53.50396        37.37119         2.37170
H         26.99896        27.02692         0.18935
H         25.75888        29.19262         0.41596
H         25.72552        31.48075         1.24054
H         25.80758        33.41407         1.39516
H         25.81096        35.85151         1.23299
H         25.91265        37.82529         1.59952
H         25.89497        40.20589         1.07167
H         25.99709        42.17030         0.86234
H         26.04590        44.53252         0.14613
H         27.08261        46.40867        -0.83008
H         29.05592        25.83763        -0.38729
H         29.02562        47.55104        -1.76701
H         32.83701        23.72563        -0.95328
H         30.77588        25.01042        -1.00329
H         32.68568        49.74329        -0.87538
H         30.66321        48.48523        -1.33924
H         34.44530        22.76728        -1.02527
H         34.29247        50.71658        -0.45125
H         36.38923        21.37514        -0.78382
H         36.34717        51.98982        -0.72931
H         40.04610        20.26320        -3.29852
H         37.95755        21.18024        -2.33949
H         40.14032        54.10974         0.18213
H         38.03999        52.91436        -0.21082
H         42.63717        20.12451        -3.28319
H         42.60162        54.08159         0.51196
H         44.76288        20.91843        -2.39029
H         44.64248        52.79991         0.86008
H         48.55332        22.67060        -1.18400
H         46.45000        21.53838        -1.53791
H         48.42183        50.77187         0.87444
H         46.33011        51.95860         0.60614
H         50.23504        23.41761        -0.47016
H         50.12454        49.83852         0.67762
H         52.32999        24.59927        -0.45079
H         52.22037        48.62920         0.76448
H         56.08496        26.80236        -0.75375
H         53.98123        25.54969        -0.58173
H         55.97895        46.44701         0.93616
H         53.89668        47.68822         0.69407
H         57.30562        28.93365        -0.77432
H         57.31313        31.41261        -0.70613
H         57.26747        33.17072         0.41430
H         57.19981        35.53882         0.97433
H         57.23820        37.51749         0.96750
H         57.16421        39.92396         1.24079
H         57.14818        41.84160         1.32521
H         57.14974        44.28531         1.35789
