         314
 CSIRO Nanostructure Databank - Neutral Graphene Oxide Data Set
C         30.36655        57.22921        -0.59931
C         30.40371        58.63017        -0.77022
C         29.22000        59.37769        -0.99760
C         30.46487        61.46640        -1.00003
C         29.26228        60.76847        -1.11152
C         32.75568        52.92153         0.06634
C         32.58814        54.31970         0.59984
C         31.46846        55.11982        -0.02477
C         32.87809        57.13459        -0.51211
C         31.53620        56.46445        -0.32121
C         32.85925        58.64355        -0.45235
C         31.65707        59.34338        -0.66793
C         32.92244        61.45402        -0.66591
C         31.68316        60.77358        -0.77662
C         35.20844        48.66197        -0.15243
C         35.16580        50.07745        -0.04575
C         33.98388        50.81563        -0.06555
C         35.21271        52.97195         0.36773
C         33.95496        52.24641         0.10107
C         35.16839        54.33621         0.69132
C         33.90677        55.08331         0.69248
C         35.29466        57.24920         0.22042
C         33.98790        56.55573         0.33966
C         35.30899        58.59336        -0.11652
C         34.08878        59.32461        -0.35795
C         35.37051        61.46426        -0.33343
C         34.12328        60.76112        -0.45983
C         37.66718        44.37138        -0.04677
C         37.68203        45.75777         0.11494
C         36.47383        46.51995        -0.10215
C         37.66028        48.66406         0.23449
C         36.41154        47.91449        -0.06632
C         37.72968        50.09928        -0.18759
C         36.43584        50.84737        -0.12352
C         37.70165        52.89244         0.57137
C         36.44893        52.27468         0.25042
C         37.70088        54.32821         0.96845
C         36.40824        55.09181         0.95436
C         37.68610        57.22745         0.76662
C         36.49550        56.55212         0.65111
C         37.70429        58.69799         0.60896
C         36.62458        59.30835        -0.25122
C         37.82045        61.50330        -0.05290
C         36.58436        60.81081        -0.16057
C         40.19927        39.97377        -0.26520
C         40.13876        41.41407        -0.11384
C         38.94600        42.11638        -0.14441
C         40.13759        44.31055         0.48708
C         38.83519        43.54262         0.24455
C         40.14505        45.78625         0.45017
C         38.93246        46.45117         0.40215
C         40.21246        48.66318         0.49864
C         38.92620        47.92351         0.52357
C         40.22281        50.04850         0.45320
C         39.05898        50.84848        -0.09656
C         40.18802        52.88679         0.85434
C         38.91445        52.21326         0.52961
C         40.19907        54.37648         0.95642
C         38.94295        55.12874         0.61045
C         40.24394        57.28975         0.95373
C         38.94466        56.53727         1.24724
C         40.25919        58.69656         0.84881
C         38.99003        59.45050         0.72577
C         40.28697        61.49165         0.19160
C         39.04122        60.85418         0.23626
C         42.78091        35.77258        -0.26732
C         42.72427        37.17630        -0.46437
C         41.51388        37.86288        -0.33722
C         42.65588        40.07308        -0.48996
C         41.39962        39.28786        -0.38438
C         42.60800        41.45917         0.02492
C         41.40707        42.10929         0.11900
C         42.66600        44.36796         0.30939
C         41.39798        43.59472         0.16505
C         42.64547        45.81549         0.58851
C         41.41297        46.50173         0.56168
C         42.68049        48.61496         0.66904
C         41.43452        47.92492         0.61736
C         42.68634        50.04156         0.65797
C         41.46207        50.75973         0.58639
C         42.68908        52.88042         0.53273
C         41.47203        52.17925         0.62302
C         42.70947        54.36750         0.39086
C         41.44131        55.12276         0.60281
C         42.72219        57.22337         0.92217
C         41.47639        56.57769         0.87232
C         42.72209        58.68409         1.08202
C         41.47432        59.40684         0.78490
C         42.75829        61.46355         0.31768
C         41.50901        60.80707         0.47771
C         45.18899        32.92322        -0.06485
C         43.98287        33.64553        -0.09876
C         45.25311        35.68057        -0.84434
C         43.96750        35.03133        -0.34917
C         45.26050        37.16979        -0.55180
C         43.98275        37.86752        -0.98805
C         45.24700        40.06580        -0.30275
C         43.96674        39.38242        -0.73230
C         45.19140        41.47388         0.19683
C         43.87044        42.13417         0.41833
C         45.17191        44.36216         0.67441
C         43.89931        43.61584         0.65710
C         45.15009        45.74305         0.64366
C         43.89261        46.48631         0.65146
C         45.17137        48.61308         0.69049
C         43.91644        47.90042         0.68893
C         45.16206        50.02707         0.66545
C         43.92165        50.75052         0.63916
C         45.16516        52.86202         0.22975
C         43.90167        52.16007         0.49668
C         45.20052        54.40057         0.28610
C         43.96429        55.12825         0.55526
C         45.25315        57.22369         0.83323
C         43.97054        56.50838         0.79391
C         45.30949        58.66879         0.83505
C         44.04954        59.43124         0.97134
C         45.21804        61.41776         0.10488
C         43.99779        60.81509         0.46541
C         46.42090        33.56278        -0.16225
C         47.67116        35.67735        -0.14154
C         46.49457        34.97337        -0.33430
C         47.69028        37.11159        -0.10516
C         46.40848        37.81477        -0.20676
C         47.68307        39.95518         0.31589
C         46.36180        39.23243         0.30489
C         47.68432        41.34937         0.73720
C         46.39063        42.09614         0.86215
C         47.70097        44.32436         0.60086
C         46.42994        43.61509         0.90591
C         47.61764        45.73829         0.45535
C         46.40994        46.46408         0.61417
C         47.65391        48.62072         0.67468
C         46.41017        47.89013         0.64726
C         47.63460        50.02002         0.70030
C         46.40566        50.75618         0.61606
C         47.67134        52.88268         0.04169
C         46.41661        52.14020         0.41737
C         47.67625        54.33575         0.48511
C         46.48541        55.06758         0.56229
C         47.72465        57.18526         0.97179
C         46.44757        56.48191         0.77036
C         47.76179        58.66349         0.85785
C         46.51421        59.39752         0.72893
C         47.62437        61.54471        -0.13068
C         46.47682        60.80367         0.31197
C         48.87146        37.82658         0.02903
C         50.13213        39.98283         0.12410
C         48.90183        39.26747         0.16735
C         50.20238        41.39938         0.12581
C         48.98809        42.16125         0.52279
C         50.05500        44.27947        -0.28229
C         48.87985        43.60685         0.30266
C         50.09622        45.78086        -0.26323
C         48.82513        46.50795         0.08640
C         50.14270        48.55880         0.43788
C         48.90941        47.91941         0.48959
C         50.21511        49.98909         0.76654
C         48.88945        50.76999         0.82787
C         50.13687        52.84791         0.30354
C         48.92997        52.18048         0.46575
C         50.11573        54.29204         0.18138
C         48.94976        54.98399         0.49556
C         50.28288        57.14555         0.58300
C         49.01689        56.41668         0.84498
C         50.30030        58.60628         0.89012
C         48.98551        59.24268         1.10067
C         50.17950        61.65961        -0.27876
C         48.94244        61.30425         0.28525
C         51.39993        42.09682        -0.03848
C         52.62124        44.34164        -0.22750
C         51.40165        43.53261        -0.32448
C         52.62415        45.73861        -0.15998
C         51.38018        46.48620        -0.10529
C         52.63387        48.59626         0.15594
C         51.37783        47.86288         0.12294
C         52.65172        49.98118         0.28603
C         51.43282        50.73791         0.43210
C         52.62799        52.84605        -0.03698
C         51.38577        52.11913         0.29984
C         52.59998        54.30627        -0.34068
C         51.27060        55.06308        -0.41199
C         52.55966        57.24979        -0.36574
C         51.35654        56.49532         0.07375
C         52.57981        58.74082        -0.30398
C         51.43898        59.47597         0.36222
C         52.62917        61.53669        -0.24918
C         51.39272        60.94085        -0.00790
C         53.85122        46.47008        -0.10421
C         55.12162        48.58155        -0.03705
C         53.88908        47.86986         0.01220
C         55.19549        49.98707         0.09667
C         53.93746        50.69812         0.40310
C         55.17132        52.90976        -0.04771
C         53.93013        52.20806         0.32736
C         55.15305        54.30116        -0.26992
C         53.87915        55.05555        -0.11096
C         55.10149        57.27044        -0.59332
C         53.87043        56.54557        -0.23054
C         55.08411        58.67127        -0.60545
C         53.89381        59.41608        -0.33976
C         55.12073        61.53300        -0.18602
C         53.89155        60.83760        -0.24296
C         56.37304        50.73425        -0.06128
C         57.58791        52.90058        -0.31964
C         56.39179        52.17124        -0.12834
C         57.59191        54.30923        -0.47115
C         56.34195        55.01229        -0.50100
C         57.65377        57.18869        -0.91497
C         56.31243        56.45804        -0.82770
C         57.66068        58.68741        -0.84986
C         56.33671        59.44502        -0.78373
C         57.58760        61.48482        -0.13212
C         56.35671        60.85683        -0.32971
C         58.82105        55.04189        -0.45233
C         60.02670        57.17559        -0.18624
C         58.86915        56.44629        -0.50479
C         60.03541        58.60244        -0.07412
C         58.85815        59.36062        -0.32876
C         60.02422        61.40566         0.31177
C         58.82503        60.75931        -0.08681
C         61.20781        59.28917         0.33237
C         61.19606        60.67417         0.50024
O         43.41546        59.21024         2.27528
O         38.05010        59.34521         1.87755
O         42.09669        44.11128        -1.03040
O         37.07171        50.44872        -1.43922
O         33.74935        56.14678         1.71386
O         48.44797        56.70160         2.17242
O         45.27683        35.51707        -2.26242
O         49.63234        50.39605         2.04172
O         52.31251        58.03147        -1.57541
O         46.29123        42.77883         2.12412
O         45.14734        53.68371        -1.01428
O         57.00927        56.69735        -2.11080
O         43.30004        40.07095        -1.82110
O         40.19362        53.61082         2.17293
O         38.07183        48.45684         1.62654
O         41.88478        54.82350        -0.77478
O         37.06527        54.66878         2.21488
O         48.56968        41.68500         1.84633
O         53.97799        51.54706         1.61932
O         49.23597        46.32539        -1.32689
O         45.59514        41.16390        -1.18567
O         39.40762        43.76142         1.60807
O         43.73423        42.68047         1.77760
O         37.13955        58.98932        -1.64966
O         49.05988        60.57127         1.48762
O         53.89413        55.87519         1.10626
O         52.70250        53.34237        -1.43753
O         57.06243        59.28245        -2.04276
O         51.36321        59.10556         1.77035
O         50.55284        43.76872        -1.54389
O         45.95731        39.11967         1.71845
H         46.71418        38.75386         2.22404
O         43.93621        37.71438        -2.42163
H         44.36890        36.83456        -2.65206
O         33.29646        56.80035        -1.88340
H         32.58862        57.10819        -2.48874
O         50.94258        55.19000        -1.82600
H         51.23752        54.35667        -2.26255
O         32.13526        54.11428         1.97997
H         32.39305        54.92329         2.47995
O         38.91769        55.28658        -0.82847
H         39.83782        55.29381        -1.17510
O         39.49334        51.13950        -1.46523
H         38.66917        51.20019        -2.00825
O         47.70543        52.90302        -1.43092
H         46.82746        53.25956        -1.72012
O         38.90955        56.40986         2.68245
H         38.64896        57.28000         3.05406
O         36.14560        59.44993        -2.59082
H         35.59840        58.64220        -2.75192
H         29.39052        56.72039        -0.59202
H         28.25954        58.84876        -1.07697
H         30.47660        62.56238        -1.08382
H         28.32961        61.32337        -1.28544
H         31.83262        52.35531        -0.13274
H         30.47364        54.64693         0.01622
H         32.93900        62.55098        -0.74946
H         34.25627        48.11674        -0.24383
H         33.02046        50.28924        -0.14443
H         35.34931        62.56490        -0.35260
H         36.76035        43.88595        -0.43852
H         35.54823        45.95566        -0.29459
H         37.82614        62.59326        -0.20952
H         39.25484        39.40821        -0.24096
H         38.01566        41.58103        -0.39011
H         40.33805        62.54672        -0.11744
H         41.85139        35.24961         0.01679
H         40.60178        37.28064        -0.12557
H         42.75449        62.51387        -0.01091
H         45.15662        31.83792         0.10731
H         43.03521        33.12187         0.10251
H         45.19767        62.44196        -0.29717
H         47.34993        32.98400        -0.04359
H         48.59709        35.13498         0.11095
H         47.44352        62.35488        -0.85436
H         49.82979        37.28608         0.02119
H         51.05834        39.41549        -0.05172
H         50.23369        62.50501        -0.98192
H         52.35304        41.54735        -0.07293
H         53.57950        43.80782        -0.13656
H         52.65587        62.61862        -0.44946
H         54.79728        45.91392        -0.18383
H         56.04701        48.01394        -0.21898
H         55.12101        62.61722        -0.00009
H         57.32066        50.19924        -0.22652
H         58.54821        52.36396        -0.32874
H         57.60438        62.55384         0.12913
H         59.75153        54.48999        -0.25109
H         60.95012        56.62720         0.05338
H         60.01849        62.49158         0.48285
H         62.12989        58.71862         0.51288
H         62.11595        61.19136         0.80670
