         280
 CSIRO Nanostructure Databank - Neutral Graphene Oxide Data Set
C         30.87741        32.16800         3.31562
C         30.95844        33.35968         2.84895
C         30.57778        36.05418         1.22122
C         30.65663        37.24511         0.88805
C         30.46063        40.32019        -0.00081
C         30.34327        41.54159        -0.17831
C         33.14418        29.26496         2.65755
C         32.12632        29.86487         3.03967
C         33.24160        31.95572         2.52868
C         31.80904        31.24541         2.53820
C         33.25359        33.46706         2.34947
C         31.93008        34.14293         2.26701
C         33.02787        36.17123         1.33591
C         31.81779        35.17288         1.19316
C         32.97133        37.30774         0.27041
C         31.65076        38.11891         0.36416
C         32.72047        40.08338        -0.76079
C         31.56096        39.40649        -0.05618
C         32.61991        41.53347        -1.20514
C         31.29753        42.32932        -0.97313
C         32.68099        44.23944        -1.02351
C         31.53759        43.77890        -0.86545
C         35.49765        27.59590         1.52936
C         35.51070        28.95367         1.90699
C         34.45073        29.72639         2.27662
C         35.63459        31.82213         1.76824
C         34.47954        31.18987         2.15892
C         35.69776        33.31702         1.63994
C         34.42838        34.11655         1.70022
C         35.64042        36.20612         1.02473
C         34.35885        35.40883         1.26685
C         35.47290        37.51376         0.25881
C         34.17738        38.27469         0.41088
C         35.29590        40.25994        -0.78576
C         34.06438        39.45207        -0.56518
C         35.22477        41.56560        -1.18701
C         33.93705        42.25920        -1.60320
C         35.18301        44.46399        -1.18420
C         34.00877        43.76616        -1.17034
C         35.37449        45.88452        -1.10239
C         37.31699        27.57101         0.05202
C         36.11516        26.98523         0.63503
C         37.75017        28.78033         0.56492
C         36.94378        29.49179         1.70094
C         38.05314        31.69454         0.82788
C         36.90784        31.04407         1.55612
C         37.98912        33.12345         0.39603
C         36.86396        33.94726         0.92220
C         37.81256        35.94872        -0.16839
C         36.76481        35.35669         0.45298
C         37.91886        37.47010        -0.10173
C         36.56925        38.13515        -0.25109
C         37.75207        40.18027        -0.92876
C         36.56689        39.53717        -0.67763
C         37.77433        41.62369        -1.22783
C         36.47766        42.33173        -1.42026
C         37.69499        44.50320        -1.37289
C         36.50518        43.81578        -1.30530
C         37.71785        46.00189        -1.49323
C         36.36338        46.55943        -1.42773
C         40.21415        24.82603        -2.56409
C         39.17157        25.39262        -2.19635
C         40.15671        27.26773        -1.10483
C         38.99334        26.57168        -1.38619
C         40.09811        28.77045        -0.76612
C         39.18245        29.31589         0.41890
C         40.23819        31.50203        -0.22276
C         39.15265        30.85690         0.27144
C         40.23298        32.93076        -0.71655
C         39.00769        33.70606        -0.28521
C         40.25109        35.90211        -0.65211
C         38.93582        35.13352        -0.80930
C         40.26200        37.26023        -0.74203
C         38.96895        37.97448        -1.10438
C         40.24263        40.26705        -0.60921
C         39.07015        39.51735        -1.23659
C         40.24998        41.63105        -0.65381
C         38.95824        42.42788        -0.71667
C         40.25443        44.56733        -0.91691
C         39.05715        43.78560        -1.45923
C         40.12818        46.01654        -0.49466
C         38.93780        46.75879        -1.10509
C         39.92740        48.73185        -0.07668
C         38.99364        48.15733        -0.64913
C         42.84959        24.82118        -2.51073
C         41.52681        25.44806        -2.57255
C         42.71684        27.15428        -0.94386
C         41.45801        26.74777        -1.66321
C         42.71920        28.60651        -0.35323
C         41.48079        29.34296        -0.53530
C         42.77519        31.47385        -0.70283
C         41.55149        30.77712        -0.14425
C         42.79056        32.97833        -0.72253
C         41.52040        33.69770        -0.26703
C         42.82088        35.83374        -0.35351
C         41.55249        35.13985        -0.82946
C         42.73502        37.26760         0.03515
C         41.44404        37.99964        -0.21646
C         42.78979        40.22065        -0.32336
C         41.47142        39.50698        -0.24550
C         42.75587        41.64140        -0.88206
C         41.50860        42.41765        -0.31964
C         42.67751        44.59811        -0.41631
C         41.46681        43.90329        -0.69176
C         42.71155        46.07606        -0.45672
C         41.43385        46.80801        -0.64319
C         42.32279        48.46034         0.97457
C         41.38175        48.60534        -0.15618
C         43.85464        25.43754        -2.11736
C         45.22270        27.24253        -0.98694
C         44.05648        26.60327        -1.31320
C         45.26091        28.61187        -0.41787
C         44.01373        29.27661        -0.20563
C         45.18527        31.55006         0.10999
C         44.04478        30.73743        -0.47678
C         45.41253        32.91465        -0.62597
C         44.09561        33.72336        -0.67957
C         45.26365        35.89112        -0.02932
C         44.01575        35.16706        -0.28244
C         45.27661        37.25356         0.01524
C         44.02888        38.07287         0.25418
C         45.31205        40.21925        -0.16190
C         44.06539        39.41293        -0.54050
C         45.28993        41.63424        -0.26629
C         44.08058        42.38667        -0.65998
C         45.10949        44.59675         0.25659
C         43.98007        43.90700        -0.42413
C         45.03171        45.93840         0.54769
C         43.94882        46.84546         0.05408
C         43.40154        47.86074         1.05344
C         47.63707        27.42005        -1.30422
C         46.55390        26.81839        -1.29421
C         47.87328        28.61310        -0.40100
C         46.48363        29.30528        -0.26598
C         47.75742        31.48924         0.33652
C         46.47658        30.71636         0.21635
C         47.73765        32.98998         0.25633
C         46.59422        33.66743        -0.02087
C         47.78653        35.90606         0.42192
C         46.48476        35.11542         0.42111
C         47.75928        37.28753         0.44927
C         46.56817        38.01297        -0.14899
C         47.77730        40.18466         0.27885
C         46.47851        39.49966         0.14170
C         47.83855        41.69588         0.20127
C         46.53578        42.41962        -0.06950
C         47.56609        44.37574         1.28547
C         46.42365        43.86674         0.34480
C         47.31229        45.84196         1.43794
C         46.24630        46.40124         1.16942
C         50.23577        29.34083        -1.30181
C         48.97474        29.56018        -0.81212
C         50.33468        31.50514         0.31231
C         49.04986        30.77587         0.06810
C         50.17247        32.88499         1.01311
C         49.07887        33.71841         0.29172
C         50.14473        35.85768         1.13137
C         49.01162        35.17977         0.71803
C         50.13939        37.30945         1.21645
C         48.92864        38.04601         0.85180
C         50.17021        40.23501         1.12882
C         48.90841        39.43192         0.86693
C         49.85182        41.64565         1.70908
C         49.01050        42.43689         0.72922
C         50.01649        44.45841         1.67941
C         48.96138        43.99117         0.73057
C         51.32956        30.01916        -1.35009
C         52.59898        32.07749        -0.44625
C         51.56687        31.13835        -0.54156
C         52.42044        33.13287         0.28264
C         51.46562        33.73245         1.02138
C         52.55457        35.95361         1.58747
C         51.35886        35.04612         1.71987
C         52.40006        37.16946         1.82541
C         51.29433        38.02634         1.56242
C         52.46948        40.30103         1.95891
C         51.17818        39.44901         2.00634
C         52.28308        41.54717         2.09665
C         51.21263        42.41918         2.02645
C         50.96955        43.78502         2.14586
O         43.39560        33.48223        -1.94578
O         44.31658        43.33528        -1.75582
O         48.19128        40.87294        -1.00388
O         49.90679        30.47071         1.24699
O         36.79081        33.93575         2.41234
O         42.15161        40.03640         0.96352
O         41.78550        37.48896         1.13246
O         38.66098        46.50222        -2.48967
O         46.81186        43.51978        -1.02165
O         33.30237        39.20007        -1.79229
O         38.03452        31.59719         2.31662
O         42.22251        46.60699        -1.80871
O         41.55210        26.76647        -3.13473
O         33.50962        32.83317         3.64566
O         37.72475        26.91743        -1.07831
O         31.58166        41.75155        -2.24398
O         47.10468        30.94688         1.54114
O         43.50437        30.95457        -1.85356
O         37.29156        41.89007        -2.58269
O         42.52980        27.36090         0.44093
O         31.37184        31.15157         1.20105
H         30.52478        30.66019         1.17471
O         44.72962        31.87110         1.43599
H         45.51251        31.82499         2.03645
O         44.48519        47.60609        -1.02234
H         43.84539        47.54065        -1.77422
O         46.21531        34.93926         1.86582
H         45.92759        35.80395         2.23174
O         39.88655        28.94002         1.62237
H         39.22932        28.93928         2.36969
O         44.12243        38.40855         1.65747
H         43.20324        38.34600         2.02073
O         42.60224        41.47731        -2.30706
H         42.96093        42.29715        -2.72653
O         39.34384        43.51282        -2.84726
H         39.31301        44.36744        -3.33094
O         39.55673        29.40213        -1.95877
H         40.08083        29.10681        -2.73383
O         38.39745        37.80967         1.22005
H         37.74934        37.44562         1.87439
O         51.09537        34.86066         3.10575
H         50.60016        34.01127         3.21882
O         38.64637        42.72177         0.67159
H         39.48645        42.96321         1.12665
O         49.18941        44.57091        -0.53117
H         48.47434        44.27450        -1.14479
O         33.98648        42.29641        -3.03749
H         33.05814        42.27795        -3.36812
O         48.25011        28.13494         0.88428
H         47.52035        27.59466         1.25167
O         31.89752        34.49423        -0.05071
H         31.15180        33.86255        -0.11761
O         50.75385        39.42490         3.35314
H         51.26558        38.74687         3.84210
O         41.60118        42.53483         1.12891
H         41.65095        41.61438         1.49866
O         38.48951        37.51319        -2.38582
H         38.81679        38.15344        -3.06703
O         46.81888        37.98046        -1.60041
H         46.02515        38.37586        -2.03820
O         47.41889        43.73368         2.55779
H         46.78279        44.24036         3.10520
O         33.06321        36.67145        -1.00100
H         33.01429        37.36769        -1.69976
O         44.14752        39.08975        -1.94810
H         43.84166        39.87848        -2.45955
O         50.79257        40.40386        -0.15511
H         50.08747        40.66948        -0.79829
O         39.83931        45.98014         0.93345
H         40.56628        45.50410         1.38788
O         49.76214        32.67248         2.36001
H         49.65798        31.68801         2.47687
O         39.30662        39.77226        -2.66527
H         38.90777        40.63660        -2.91755
O         32.89058        36.71386         2.65294
H         33.28963        37.61614         2.67512
O         41.92942        49.36062        -1.15813
H         42.90777        49.34506        -1.09487
O         34.19669        38.86426         1.74599
H         35.01625        38.56735         2.20335
O         49.15223        41.49536         2.94490
H         48.67590        42.33708         3.13837
O         37.61140        29.19846         2.95830
H         37.73673        30.04774         3.44189
O         41.84107        30.81438         1.31330
H         41.22983        30.15088         1.73638
O         38.63460        34.92840        -2.21174
H         38.50280        35.82110        -2.62193
O         40.23943        32.82862        -2.16263
H         41.05385        32.35720        -2.44113
O         41.52858        33.76140         1.16514
H         41.65137        32.84746         1.52030
O         36.08407        36.62955         2.36803
H         36.32568        35.79240         2.84464
O         45.82125        32.62579        -1.97445
H         44.99194        32.55385        -2.51009
O         41.61257        35.10838        -2.27850
H         40.81478        34.61398        -2.59500
O         49.51627        33.73026        -1.09676
H         48.89678        34.28205        -1.62087
