         349
 CSIRO Nanostructure Databank - Neutral Graphene Oxide Data Set
C          1.61816         4.96937         3.61536
C          0.42270         5.64990         3.47102
C          1.44205         7.23113         1.89456
C          0.32804         6.77047         2.63072
C          1.35978         8.39052         1.01281
C          0.08621         9.03858         0.76868
C          1.11673        10.61425        -0.81811
C         -0.04908        10.05360        -0.11695
C          1.06305        12.02295        -1.40441
C         -0.18528        12.80664        -1.32869
C          1.04869        14.86165        -1.89723
C         -0.19248        14.12421        -1.57842
C          1.07475        16.37902        -1.78724
C         -0.13519        17.07230        -1.28227
C          1.06360        19.20061        -0.95180
C         -0.13145        18.33688        -0.82779
C          1.17628        20.46246        -0.19851
C         -0.00604        21.09402         0.32577
C          1.22481        23.14144         0.89203
C          0.00310        22.39384         0.75459
C          1.23234        24.50392         1.16305
C          0.01017        25.26244         1.26775
C          1.21709        27.39583         1.37310
C          0.00369        26.61936         1.43531
C          1.16786        28.82888         1.37978
C          4.00893         4.76533         3.10746
C          2.78402         5.40115         2.90716
C          3.82217         6.93217         1.24946
C          2.67450         6.53898         2.02423
C          3.74960         8.13753         0.43998
C          2.50194         8.86687         0.36479
C          3.59062        10.64916        -0.95937
C          2.44747        10.05961        -0.47208
C          3.57871        11.95718        -1.66690
C          2.33676        12.77709        -1.55542
C          3.59916        14.89615        -1.99516
C          2.33621        14.12225        -1.79101
C          3.59159        16.34435        -1.61032
C          2.38883        17.03232        -1.56423
C          3.63816        19.15030        -1.01649
C          2.37822        18.48313        -1.34139
C          3.61161        20.46117        -0.53325
C          2.41252        21.09917        -0.07950
C          3.76148        23.12720         0.77787
C          2.48579        22.28653         0.88645
C          3.79015        24.59194         1.10351
C          2.49660        25.26189         1.56594
C          3.63466        27.47535         0.97658
C          2.44327        26.73747         1.24341
C          3.58255        28.92550         1.07134
C          2.32106        29.56421         1.29549
C          6.13728         4.05747         1.88762
C          5.27007         5.22264         2.45850
C          6.11000         6.49408         0.43867
C          5.02541         6.24377         1.37856
C          6.05190         7.78257        -0.38525
C          4.88662         8.64273        -0.17921
C          6.16142        10.65757        -1.12528
C          4.89670        10.04188        -0.64649
C          6.22244        11.88510        -2.02954
C          4.87645        12.63343        -2.06510
C          6.17308        14.81616        -1.69341
C          4.90940        14.14482        -2.08908
C          6.15645        16.28752        -1.29554
C          4.84651        17.04154        -1.46321
C          6.12325        19.16274        -1.18203
C          4.86893        18.42453        -1.22307
C          6.13271        20.50640        -0.85227
C          4.87065        21.22578        -0.58187
C          6.25314        23.28341         0.23541
C          4.91468        22.61311        -0.03431
C          6.08903        24.79438         0.11737
C          4.92968        25.40832         0.55497
C          5.86468        27.74277        -0.07636
C          4.82562        26.83667         0.57079
C          6.00074        29.02160         0.73558
C          4.77702        29.65337         1.07810
C          8.64501         3.97870         1.65654
C          7.45202         4.60528         1.38435
C          8.57769         6.38691         0.09122
C          7.42166         5.82844         0.61569
C          8.61891         7.71090        -0.48194
C          7.35185         8.35968        -0.87297
C          8.67237        10.55029        -1.18502
C          7.39493         9.81671        -1.25084
C          8.62655        12.00382        -1.32136
C          7.44887        12.69366        -1.62447
C          8.63415        14.90492        -1.43123
C          7.38410        14.14066        -1.61693
C          8.63651        16.27704        -1.48267
C          7.35795        16.98845        -1.94290
C          8.67045        19.22302        -1.53788
C          7.36368        18.49571        -1.67885
C          8.63728        20.58178        -0.92619
C          7.34149        21.30707        -0.86000
C          8.58056        23.45583        -0.95931
C          7.35730        22.64960        -0.58719
C          8.52142        24.85420        -0.32917
C          7.15643        25.53479        -0.65896
C          8.49147        27.60360         0.23568
C          7.25469        27.13028        -0.52835
C          8.46496        28.93306         0.84639
C          7.22069        29.60097         1.03931
C         11.04961         3.73705         1.17258
C          9.87133         4.40714         1.03047
C         11.07895         6.34195         0.00326
C          9.81114         5.52682         0.00135
C         11.07691         7.72893        -0.27514
C          9.82564         8.41528        -0.61429
C         11.12812        10.56589        -0.95288
C          9.84198         9.82613        -0.95965
C         11.07341        12.04555        -0.94920
C          9.87328        12.73799        -1.14991
C         11.11800        14.83884        -1.33278
C          9.89225        14.16613        -1.26839
C         11.13063        16.30504        -1.70800
C          9.91668        17.01300        -1.11528
C         11.13937        19.19005        -1.25753
C          9.96003        18.50056        -1.40516
C         11.20019        20.63738        -1.12578
C          9.93662        21.31927        -0.78687
C         11.08953        23.51783        -0.75968
C          9.90028        22.77400        -0.72012
C         11.02953        24.92317        -0.62851
C          9.73114        25.69539        -0.74868
C         10.94836        27.46737         0.72431
C          9.69173        26.97884         0.04307
C         10.92118        28.95138         0.99766
C          9.65780        29.58152         1.16344
C         13.52123         3.48829         0.70128
C         12.21501         4.11638         0.28130
C         13.50170         6.30784         0.08569
C         12.27753         5.63053         0.15390
C         13.51229         7.71597        -0.02996
C         12.31062         8.41918        -0.21446
C         13.51573        10.67193         0.15748
C         12.38803         9.87515        -0.50961
C         13.47245        12.12110        -0.31566
C         12.30580        12.75031        -0.83734
C         13.59370        14.86762        -1.11725
C         12.34723        14.15799        -1.10699
C         13.59341        16.30580        -1.30340
C         12.42128        17.00401        -1.36003
C         13.64101        19.20210        -1.61280
C         12.44101        18.46872        -0.98955
C         13.67094        20.66947        -1.23113
C         12.38918        21.35338        -1.06922
C         13.55841        23.49915        -0.80512
C         12.37336        22.80214        -0.85377
C         13.60191        24.98026        -0.73243
C         12.24936        25.72970        -0.61775
C         13.43436        27.66500         0.35963
C         12.24352        27.02014         0.06894
C         13.38617        28.97805         1.00514
C         12.11303        29.61418         1.20945
C         15.99385         3.47485         0.79168
C         14.73105         4.10715         0.51713
C         16.05489         6.20772        -0.07647
C         14.74563         5.50240         0.00910
C         16.06908         7.68987         0.06112
C         14.79258         8.45956         0.08174
C         16.10753        10.50356        -0.20417
C         14.85802         9.94143        -0.07120
C         16.36751        11.89760         0.04478
C         14.54278        12.95782        -0.03755
C         16.09358        14.81985        -0.65797
C         14.76967        14.22939        -0.63865
C         16.17543        16.23681        -1.09980
C         14.89952        17.00951        -1.36733
C         16.13833        19.13923        -1.17794
C         14.93982        18.48209        -1.30404
C         16.20102        20.64393        -1.40076
C         14.86131        21.33426        -1.14444
C         16.10531        23.55591        -0.71882
C         14.84585        22.80739        -1.01290
C         16.00550        24.84015         0.10808
C         14.77670        25.66975        -0.19579
C         15.94805        27.68019         0.65316
C         14.72118        26.99775         0.20058
C         15.84541        29.02103         1.22621
C         14.54661        29.61195         1.39501
C         18.47283         3.47493         0.99694
C         17.22670         4.13146         0.68557
C         18.49421         6.23218         0.32367
C         17.29527         5.52001         0.32481
C         18.52994         7.64729        -0.04190
C         17.35480         8.34082        -0.24427
C         18.60746        10.46958        -0.61984
C         17.30161         9.73370        -0.78135
C         18.60615        11.94273        -0.99828
C         17.38659        12.66090        -0.46802
C         18.57350        14.83297        -0.54777
C         17.31046        14.11551        -0.51324
C         18.60311        16.26166        -0.54535
C         17.39272        17.01988        -0.81473
C         18.62172        19.17945        -0.73276
C         17.36883        18.40638        -0.92837
C         18.53101        20.62393        -0.37734
C         17.37411        21.30969        -0.67852
C         18.60300        23.47113        -0.01713
C         17.39232        22.78179        -0.61175
C         18.43497        24.85426         0.53939
C         17.29591        25.67383        -0.04368
C         18.42824        27.73497         0.93620
C         17.16806        27.03818         0.60874
C         18.31253        29.19793         1.47652
C         16.95829        29.69954         1.68159
C         19.66236         4.14995         0.95062
C         20.93065         6.24670         0.49657
C         19.72458         5.54558         0.60468
C         20.96208         7.61247         0.14366
C         19.80138         8.33524        -0.12643
C         21.01635        10.53487        -0.33189
C         19.79255         9.78158        -0.39084
C         21.02447        11.92041        -0.37422
C         19.85116        12.67552        -0.56906
C         21.00920        14.82821        -0.21466
C         19.80893        14.10452        -0.44502
C         21.01010        16.20612        -0.12303
C         19.82282        16.93788        -0.31816
C         20.88158        19.11795         0.45092
C         19.87282        18.41714        -0.36338
C         20.78536        20.43925         0.70838
C         19.68518        21.26757         0.24500
C         20.82651        23.34478         1.08278
C         19.70543        22.64016         0.49766
C         20.82570        24.68009         1.33909
C         19.60826        25.50201         1.21071
C         20.69437        27.64879         1.89507
C         19.63519        26.98495         1.33002
C         20.59697        29.00822         2.34853
C         19.43233        29.70860         2.26826
O          7.50551        27.61533        -1.82749
O          7.30467         8.78621        -2.27784
O         15.69773        16.45161        -2.47903
O          9.27593        20.63111         0.39036
O          9.67085         4.92388        -1.29312
O         15.49885         8.10965         1.36620
O         19.67534        18.93673        -1.72730
O         18.46009        24.90500         1.99546
O          4.03967        12.00238        -3.07415
O         15.61668        23.55792        -2.08135
O         18.66936        28.89630         0.09114
O         15.46743        12.52665         0.92477
O         12.16831        10.11686        -1.92599
O          1.57406        19.24289        -2.31331
O          0.93929        10.84105        -2.25752
O         18.43918        23.37984        -1.46069
O          5.68823         6.49819        -0.97496
O          4.66067        22.44623        -1.44635
O          7.98138        19.19765        -2.82776
O         13.00159        25.65801        -1.87553
O          4.21697        23.58559         2.10663
O         15.43536         5.66888        -1.28791
O          0.93159        15.71216        -3.08276
O          5.76362        10.94635         0.24874
O          4.27001        14.69802        -3.28726
O         12.63036        18.49891         0.45376
H         11.85302        18.03916         0.84876
O          9.69868        26.00032        -2.15782
H          9.47005        25.16350        -2.63563
O          6.11623         5.82260         3.49726
H          5.58474         6.50397         3.96035
O          7.25256        16.78283        -3.35751
H          7.78408        17.48347        -3.79981
O         10.06123        16.90480         0.34125
H          9.20304        17.14442         0.75241
O         13.24207        10.64360         1.57959
H         13.99602        11.08299         2.03009
O         15.87361        24.38210         1.47995
H         16.52635        24.85000         2.04994
O          6.77527        25.31378        -2.03348
H          7.00323        26.19497        -2.47995
O          6.43024        16.33139         0.14734
H          5.73526        15.81803         0.61005
O         13.46024        19.14332        -3.04796
H         14.27197        19.49922        -3.47064
O          2.49140        25.23835         3.02956
H          3.00346        24.44520         3.30763
O         18.55448        11.98732        -2.47839
H         19.43068        11.69914        -2.81326
O         10.99026        16.39578        -3.15190
H         11.80049        16.03197        -3.56670
O          5.19348        28.12867        -1.30422
H          5.93914        28.20493        -1.97108
O         17.05104         9.63937        -2.22295
H         17.35401        10.49008        -2.62725
O          8.66382        24.73280         1.09582
H          8.05988        24.02905         1.44759
O          6.50700        11.43867        -3.36708
H          5.64910        11.31140        -3.83388
O          2.53387        21.62950         2.19162
H          2.86710        22.29292         2.83669
O         11.92279         3.57073        -1.03559
H         11.05927         3.99432        -1.34494
O          5.44245         3.40807         0.82560
H          5.57079         3.91979        -0.00070
O         17.57364        25.89704        -1.43201
H         16.80804        26.35109        -1.84150
O         16.45440        20.83522        -2.82287
H         16.50007        21.80794        -2.97967
O          8.57017        23.55776        -2.42244
H          7.71174        24.01856        -2.65094
O          6.67717        22.96268         1.60313
H          5.95049        23.25892         2.20843
O         10.95993        26.81875         2.04841
H         11.65722        27.25513         2.58288
H          1.68955         4.09819         4.28155
H         -0.46741         5.31721         4.02281
H         -0.63933         7.28384         2.55836
H         -0.81444         8.65249         1.26372
H         -1.04728        10.45284        -0.34109
H         -1.13278        12.27436        -1.16915
H         -1.15093        14.65789        -1.62335
H         -1.07738        16.50884        -1.25085
H         -1.05819        18.75685        -0.41213
H         -0.97053        20.57491         0.24831
H         -0.95814        22.87072         0.98793
H         -0.95434        24.74188         1.19535
H         -0.95369        27.15360         1.52208
H          0.19434        29.32537         1.50114
H          4.07272         3.93941         3.83249
H          2.28855        30.66153         1.35769
H          6.30858         3.30559         2.69803
H          4.77422        30.70523         1.40431
H          8.66490         3.09738         2.31692
H          7.23415        30.59648         1.51253
H         11.11233         2.83395         1.80127
H          9.62845        30.62964         1.49994
H         13.49400         2.44399         1.05188
H         12.10373        30.66324         1.54324
H         15.98296         2.42253         1.11580
H         14.48774        30.60769         1.85923
H         18.45352         2.40907         1.26806
H         16.82588        30.63705         2.24291
H         20.60214         3.62458         1.17646
H         21.87859         5.72576         0.69443
H         21.94420         8.10333         0.09797
H         21.96865        10.01428        -0.16824
H         21.98322        12.42785        -0.19922
H         21.96565        14.29818        -0.12602
H         21.96087        16.73219         0.03497
H         21.70839        18.54128         0.88889
H         21.56501        20.90644         1.32437
H         21.75906        22.79246         1.26277
H         21.74963        25.15535         1.69691
H         21.61021        27.09838         2.15296
H         21.45082        29.42633         2.89992
H         19.31394        30.66626         2.79595
