         634
 CSIRO Nanostructure Databank - Neutral Graphene Oxide Data Set
C         23.09622        69.84972         1.57025
C         23.10297        71.26078         1.67173
C         21.92522        71.99098         1.99291
C         23.14928        74.08588         1.90102
C         21.95962        73.37724         2.10141
C         25.49827        65.59136         0.92281
C         25.47255        67.00051         0.93067
C         24.28430        67.71673         1.19113
C         25.49545        69.85691         1.03363
C         24.27214        69.13204         1.26825
C         25.51347        71.27357         1.12082
C         24.32298        71.97965         1.45397
C         25.57085        74.10410         1.37897
C         24.34570        73.40617         1.57569
C         28.03143        61.30588         0.92850
C         28.07307        62.79857         1.08329
C         26.74787        63.48781         0.95349
C         27.94435        65.59754         0.47496
C         26.71237        64.86571         0.76398
C         27.91494        67.02964         0.45650
C         26.70218        67.72760         0.69671
C         27.88785        69.87334         0.42045
C         26.69178        69.14856         0.72273
C         27.90175        71.30149         0.52387
C         26.73538        71.99131         0.89207
C         27.98160        74.13082         0.87369
C         26.75289        73.43178         1.04620
C         30.56291        57.11135         1.23108
C         30.50962        58.51755         1.07633
C         29.28070        59.19326         0.91406
C         30.47423        61.34095         0.57757
C         29.22922        60.60950         0.78425
C         30.45019        62.72907         0.31470
C         29.10528        63.40066         0.13331
C         30.35760        65.59477        -0.02774
C         29.14969        64.90912         0.23076
C         30.35399        67.04409        -0.09983
C         29.10578        67.76134         0.15179
C         30.25077        69.90427        -0.48701
C         29.06206        69.16158         0.06964
C         30.26448        71.37634        -0.15855
C         29.13914        72.02911         0.27590
C         30.38861        74.17283         0.38382
C         29.16188        73.47477         0.50566
C         33.09193        52.87781         1.48749
C         33.05231        54.29962         1.52044
C         31.83716        54.99748         1.34718
C         33.02550        57.13743         1.41036
C         31.79863        56.41099         1.34788
C         32.99812        58.63595         1.56133
C         31.72834        59.28030         1.07698
C         32.96193        61.35472         0.57655
C         31.72185        60.64262         0.74267
C         32.94141        62.73910        -0.03095
C         31.62858        63.47034         0.13543
C         32.83980        65.59095        -0.27006
C         31.60870        64.87796        -0.06671
C         32.76432        67.00519        -0.80144
C         31.52279        67.74129        -0.34361
C         32.76896        69.98826        -0.54789
C         31.55449        69.22998        -0.05208
C         32.77778        71.35644        -0.52659
C         31.47883        72.14287        -0.61200
C         32.79580        74.19539        -0.09373
C         31.56701        73.53882        -0.04983
C         35.48689        48.55448         1.62199
C         35.53341        49.99416         2.04388
C         34.28561        50.75167         1.66401
C         35.54240        52.82415         2.17263
C         34.27172        52.13051         1.71097
C         35.52216        54.34288         1.97842
C         34.26420        55.04506         1.68126
C         35.50886        57.18640         1.33417
C         34.25773        56.45318         1.51734
C         35.45633        58.61396         1.05804
C         34.25019        59.31158         1.06095
C         35.43466        61.42693         0.46584
C         34.19252        60.70521         0.71099
C         35.42282        62.83838         0.22864
C         34.12440        63.58095         0.43856
C         35.30993        65.65398        -0.46070
C         34.08575        64.97289        -0.15836
C         35.30801        67.07273        -0.70060
C         34.01997        67.81482        -0.41704
C         35.29284        69.97225        -0.82486
C         33.98926        69.23101        -1.01466
C         35.26262        71.41915        -0.74414
C         34.02015        72.10209        -0.61674
C         35.23996        74.22881        -0.43600
C         34.01351        73.51498        -0.41418
C         37.82096        44.29204         1.07214
C         37.80094        45.71581         0.98213
C         36.61639        46.44045         1.10939
C         37.82506        48.61368         0.89605
C         36.60919        47.87848         1.19945
C         37.88681        49.99429         1.03311
C         36.75649        50.74670         1.54017
C         37.93736        52.88054         1.14740
C         36.77351        52.12593         1.58981
C         37.96084        54.27224         1.18622
C         36.80157        55.07477         1.62985
C         37.94316        57.20121         0.93242
C         36.71410        56.50087         1.23600
C         37.90591        58.61328         0.75415
C         36.68711        59.31754         0.76269
C         37.93341        61.49714         0.49506
C         36.64638        60.72127         0.50028
C         37.85397        62.87379        -0.09892
C         36.59899        63.55055        -0.09286
C         37.77208        65.61989        -0.75039
C         36.55787        64.95077        -0.44939
C         37.77939        67.07154        -1.20013
C         36.47332        67.79068        -0.91759
C         37.74818        69.95832        -1.08773
C         36.46605        69.23914        -0.93418
C         37.73739        71.46319        -0.99704
C         36.46627        72.16827        -0.75092
C         37.72626        74.39766        -0.80263
C         36.45930        73.57709        -0.61987
C         40.27619        40.04838         1.13322
C         40.26843        41.44036         1.03105
C         39.05280        42.17300         1.13398
C         40.32950        44.32213         1.20713
C         39.02140        43.57392         1.07771
C         40.25379        45.74335         0.70888
C         39.04931        46.41433         0.71935
C         40.27219        48.56971         0.32731
C         38.95658        47.84873         0.25706
C         40.28116        49.98994         0.35455
C         39.08960        50.72102         0.67270
C         40.33281        52.80715         0.39542
C         39.11184        52.13056         0.70585
C         40.33263        54.27127         0.21797
C         39.08659        55.03020         0.60493
C         40.45168        57.17501         0.69641
C         39.14691        56.49341         0.78443
C         40.48453        58.69732         0.64472
C         39.13967        59.26801         0.25599
C         40.37655        61.44228        -0.24492
C         39.10600        60.71520        -0.03258
C         40.31253        62.81192        -0.48928
C         39.04301        63.53179        -0.42696
C         40.26034        65.64306        -0.87835
C         39.00362        64.93672        -0.71159
C         40.27750        67.07219        -0.86045
C         38.97959        67.78933        -0.56388
C         40.21689        69.96206        -0.89497
C         39.03163        69.26398        -0.87792
C         40.26557        71.40230        -0.78448
C         39.00192        72.12711        -0.57805
C         40.31385        74.27400        -0.70602
C         39.00940        73.63874        -0.48380
C         42.68429        35.74227         1.06632
C         42.66996        37.14815         0.95730
C         41.47333        37.89671         1.08902
C         42.68726        39.97199         0.58064
C         41.47148        39.29258         0.96318
C         42.68599        41.41458         0.40389
C         41.50566        42.14919         0.72218
C         42.70161        44.24217         0.32086
C         41.51730        43.55391         0.66881
C         42.69725        45.68684         0.23790
C         41.48502        46.41423         0.37886
C         42.71480        48.53689         0.02987
C         41.47585        47.84315         0.23151
C         42.72035        49.95029        -0.08837
C         41.50539        50.68702         0.14262
C         42.85708        52.80393         0.09611
C         41.51707        52.10231         0.16352
C         42.78747        54.28504        -0.18336
C         41.61973        54.97260         0.06323
C         42.85087        57.15195        -0.27029
C         41.68249        56.42620         0.25690
C         42.81219        58.56939        -0.43210
C         41.63440        59.30702        -0.14910
C         42.75265        61.37724        -0.92433
C         41.58644        60.69620        -0.42060
C         42.69490        62.78380        -1.12992
C         41.50533        63.49907        -0.89506
C         42.72332        65.64310        -1.07406
C         41.46599        64.93209        -1.01569
C         42.72173        67.08178        -0.95764
C         41.48265        67.77325        -0.92933
C         42.75686        69.95922        -0.83230
C         41.49815        69.24812        -1.25074
C         42.74652        71.37134        -0.66500
C         41.47188        72.09494        -0.69915
C         42.80290        74.22502        -0.95725
C         41.47177        73.54398        -0.72264
C         45.07716        32.89559         0.96575
C         43.89261        33.59106         1.02566
C         45.13584        35.72408         0.84562
C         43.88458        35.01943         0.96841
C         45.12666        37.13023         0.70139
C         43.90590        37.84072         0.69797
C         45.03621        39.86719        -0.24542
C         43.86745        39.24980         0.43318
C         45.01509        41.34505        -0.62021
C         43.85846        42.09476         0.01765
C         45.13433        44.20915        -0.21832
C         43.88860        43.50903         0.00958
C         45.13396        45.63439        -0.20756
C         43.91630        46.36669        -0.03560
C         45.14295        48.50276        -0.30117
C         43.92849        47.80018        -0.10123
C         45.11899        49.91383        -0.47623
C         43.92693        50.62812        -0.42252
C         45.15744        52.83584        -0.85757
C         43.83910        52.08913        -0.82659
C         45.19539        54.22482        -0.77338
C         43.99575        54.98214        -0.50903
C         45.19879        57.09618        -1.04436
C         44.00051        56.40573        -0.62045
C         45.18578        58.49583        -1.19255
C         43.97843        59.24731        -0.95580
C         45.10044        61.31295        -1.87518
C         43.93659        60.63657        -1.18770
C         45.18520        62.80713        -1.64554
C         43.86021        63.52907        -1.75535
C         45.22261        65.59051        -0.96205
C         43.90450        64.94879        -1.26282
C         45.17933        67.09759        -1.01268
C         43.95471        67.79748        -0.93717
C         45.21013        69.91310        -0.59791
C         43.96030        69.23619        -0.79880
C         45.19825        71.34962        -0.39871
C         43.95207        72.05292        -0.42247
C         45.22901        74.21873        -0.28228
C         43.90459        73.53797        -0.12673
C         46.31287        33.58842         0.89476
C         47.69840        35.66281         0.89759
C         46.35564        34.96997         0.84901
C         47.66357        37.11509         0.48393
C         46.40913        37.92968         0.69340
C         47.60492        39.82472        -0.70921
C         46.32304        39.11486        -0.26592
C         47.54551        41.33345        -0.50132
C         46.37088        42.02731        -0.41481
C         47.59032        44.19640        -0.33671
C         46.36558        43.49173        -0.34273
C         47.59911        45.63381        -0.31988
C         46.36872        46.34975        -0.33279
C         47.62223        48.45883        -0.42624
C         46.38772        47.77397        -0.37370
C         47.64361        49.96191        -0.26713
C         46.38868        50.59790        -0.82276
C         47.67821        52.79960        -1.02299
C         46.39147        52.07899        -1.07275
C         47.68810        54.20988        -1.08904
C         46.42798        54.95382        -1.03561
C         47.65093        56.99902        -1.77060
C         46.40341        56.32772        -1.23795
C         47.64830        58.50349        -1.66009
C         46.41799        59.22066        -1.50402
C         47.63985        61.34720        -2.08193
C         46.40172        60.60389        -1.65920
C         47.65750        62.81967        -1.73267
C         46.38193        63.49150        -1.68681
C         47.66592        65.71094        -1.54202
C         46.34865        65.00604        -1.81056
C         47.64026        67.07243        -1.26674
C         46.40155        67.78858        -1.00789
C         47.70213        69.83783        -0.43229
C         46.41426        69.18657        -0.71660
C         47.68533        71.35928        -0.19465
C         46.40941        72.06606        -0.29115
C         47.68054        74.19899        -0.31763
C         46.42796        73.51519        -0.30985
C         48.81237        37.76613         0.17189
C         49.99887        39.90677         0.04967
C         48.84500        39.19022        -0.10612
C         50.07345        41.32408        -0.18230
C         48.86449        42.04134        -0.75536
C         50.05256        44.15933        -0.21999
C         48.85248        43.49990        -0.37735
C         50.11413        45.64104         0.03711
C         48.82250        46.34767        -0.27960
C         50.11389        48.51080        -0.11154
C         48.83156        47.74652        -0.35657
C         50.07783        49.90755        -0.68488
C         48.91143        50.61657        -0.76166
C         50.09994        52.77633        -1.04112
C         48.88768        52.06189        -0.99351
C         50.13104        54.18835        -1.12411
C         48.92100        54.90559        -1.13859
C         50.14603        56.98792        -1.83687
C         48.92199        56.42102        -1.12706
C         50.12892        58.47316        -2.20877
C         48.87325        59.20998        -1.75593
C         50.11268        61.34960        -1.30649
C         48.89089        60.60619        -1.75522
C         50.13298        62.83072        -1.59082
C         48.87521        63.52697        -1.68436
C         50.14045        65.65576        -1.67093
C         48.90521        64.98361        -1.67167
C         50.14137        67.12848        -1.78948
C         48.86092        67.87036        -1.48212
C         50.13106        69.95768        -0.92675
C         48.95389        69.24811        -0.94322
C         50.13926        71.37591        -0.58891
C         48.94181        72.08090        -0.40255
C         50.14748        74.21675        -0.35801
C         48.92062        73.51907        -0.36731
C         51.25080        42.01119        -0.01764
C         52.52307        44.13282        -0.20275
C         51.31244        43.44367        -0.18045
C         52.59623        45.54734        -0.40126
C         51.29772        46.26865        -0.70900
C         52.58811        48.40519        -0.56012
C         51.37553        47.75632        -0.47908
C         52.64068        49.85063        -0.63281
C         51.37193        50.54542        -0.96404
C         52.59630        52.77246        -0.68248
C         51.36821        52.03881        -1.08112
C         52.60243        54.21443        -0.97956
C         51.42936        54.87154        -1.19631
C         52.74872        57.02005        -1.90855
C         51.43867        56.24695        -1.75217
C         52.59705        58.41795        -1.26124
C         51.45206        59.20475        -1.90912
C         52.62304        61.38364        -1.14983
C         51.42121        60.66713        -1.63373
C         52.60224        62.76383        -1.21109
C         51.35213        63.49907        -1.45834
C         52.60375        65.62180        -1.31657
C         51.38284        64.94389        -1.51185
C         52.69244        67.09836        -1.51310
C         51.43820        67.88323        -1.72186
C         52.64750        69.95879        -0.83936
C         51.41270        69.41336        -1.55445
C         52.61929        71.39165        -0.54283
C         51.37846        72.09437        -0.53366
C         52.60911        74.20494        -0.19187
C         51.37613        73.51845        -0.36622
C         53.79333        46.23788        -0.40814
C         55.04990        48.37404        -0.53762
C         53.85231        47.67253        -0.54134
C         55.10075        49.81293        -0.58335
C         53.84062        50.52746        -0.64275
C         55.14090        52.73275        -0.83237
C         53.87393        52.00993        -0.57263
C         55.12822        54.09728        -1.01008
C         53.89463        54.93602        -0.72670
C         55.11967        57.02944        -1.18955
C         53.94910        56.31806        -1.31620
C         55.10953        58.49885        -1.15493
C         53.91189        59.18151        -1.19528
C         55.12524        61.37824        -0.89946
C         53.84115        60.61174        -0.70413
C         55.08639        62.76019        -0.95967
C         53.84020        63.49765        -1.03487
C         54.96808        65.65264        -0.56960
C         53.80984        64.90756        -1.04198
C         54.93800        67.00030        -0.35459
C         53.98080        67.83456        -1.16279
C         55.01497        69.87278        -0.15231
C         53.79813        69.23921        -0.64326
C         55.13515        71.37031        -0.31365
C         53.80531        72.08308        -0.29190
C         55.06558        74.17083         0.17515
C         53.81371        73.50109        -0.10626
C         56.29706        50.52569        -0.58303
C         57.58679        52.63171        -0.65374
C         56.37560        51.96281        -0.72912
C         57.69893        54.06042        -0.95288
C         56.36684        54.85071        -1.20642
C         57.55471        56.99843        -0.80799
C         56.36332        56.31254        -1.00103
C         57.55051        58.44749        -0.77536
C         56.38007        59.17933        -0.90944
C         57.58085        61.32500        -0.69380
C         56.38901        60.65051        -0.84645
C         57.71638        62.82400        -0.84715
C         56.35908        63.53158        -0.96831
C         57.42138        65.62082         0.10249
C         56.27445        64.96042        -0.55085
C         57.32826        66.93827         0.47991
C         55.99736        67.66077         0.49142
C         57.32689        69.81928         0.71891
C         56.10175        69.15163         0.28078
C         57.35210        71.21570         0.84417
C         56.04917        71.97074         0.74746
C         57.43462        74.08633         0.84945
C         56.19357        73.46330         0.54758
C         58.79943        54.87002        -0.44564
C         59.86549        56.98446         0.10814
C         58.76644        56.25731        -0.45632
C         59.91059        58.37393         0.10689
C         58.91639        59.10836        -0.78611
C         59.90726        61.27344         0.31581
C         58.86046        60.60530        -0.52822
C         59.57772        62.58629         1.00748
C         58.61995        63.46210         0.21667
C         59.47914        65.40059         1.53884
C         58.55057        64.79365         0.50661
C         59.62796        66.90381         1.38486
C         58.49821        67.63273         0.99454
C         59.68016        69.74249         1.47389
C         58.49947        69.06528         1.04362
C         59.67465        71.15885         1.58907
C         58.52646        71.89246         1.25835
C         59.81969        74.00228         1.42247
C         58.56782        73.35776         1.22657
C         60.94291        59.04836         0.78942
C         62.04090        61.11445         1.53984
C         60.98688        60.45128         0.92548
C         62.05004        62.54003         1.71996
C         60.83696        63.31389         1.45115
C         61.91908        65.38897         2.27211
C         60.78884        64.66179         1.66196
C         62.01920        66.84290         2.11234
C         60.83787        67.58329         1.73083
C         62.11210        69.70147         2.04305
C         60.87168        68.99587         1.75247
C         62.11802        71.07663         2.16240
C         60.83864        71.86193         2.23521
C         62.23075        73.93576         1.81771
C         60.97454        73.30177         1.78531
C         63.20772        63.17219         2.13548
C         64.46075        65.34255         2.54798
C         63.22258        64.58491         2.50851
C         64.46050        66.73193         2.57015
C         63.24030        67.49542         2.34301
C         64.58630        69.57387         2.29032
C         63.33724        68.92229         2.23011
C         64.59151        71.01702         2.19269
C         63.36951        71.80926         2.57450
C         64.67143        73.89231         1.93725
C         63.43404        73.24411         2.05606
C         65.69119        67.43783         2.73793
C         67.07475        69.43402         2.93120
C         65.79777        68.81532         2.59049
C         67.48788        70.62121         2.37079
C         65.70774        71.71203         1.80893
C         67.17105        73.66929         2.12079
C         65.88056        73.13751         1.95285
C         68.46148        71.58667         2.79136
C         68.32525        72.94479         2.52931
O         37.80190        70.82108        -2.30591
O         36.35275        54.94886         3.03853
O         47.77288        70.38840         0.91895
O         57.21955        54.41490        -2.29390
O         52.26047        67.48776        -2.87481
O         39.35494        54.68069        -0.82331
O         53.13975        52.46922         0.66130
O         60.00688        61.31955        -1.13175
O         56.46769        64.57842        -1.99679
O         45.40711        38.96512        -1.38862
O         46.39197        51.07118        -2.19755
O         38.91803        59.74073        -1.12007
O         38.90500        72.81196         0.71899
O         62.27648        64.90686         3.60664
O         51.73239        60.15116        -2.97609
O         41.40642        56.70157         1.73302
O         50.61407        56.20910        -2.97695
O         49.32651        67.68541        -2.87253
O         51.49513        51.20670        -2.28434
O         66.76671        71.01543         1.21862
O         47.75124        39.60146        -2.14733
H         46.84275        39.43232        -2.49656
O         50.37500        45.85656         1.46764
H         49.70433        45.35072         1.97369
O         55.37833        71.77635         2.02913
H         55.90565        72.23292         2.71708
O         44.75689        41.43611        -2.05193
H         44.95853        40.55409        -2.43947
O         32.99686        58.86585         3.03081
H         33.81131        58.45068         3.38837
O         46.52773        38.55391         2.01642
H         46.52125        37.84137         2.68953
O         47.60878        50.20469         1.17422
H         48.41966        49.78331         1.55079
O         43.44020        52.69145         1.42971
H         42.89093        53.21244         2.05231
O         60.51177        71.94931         3.68653
H         59.72695        72.53307         3.76885
O         55.74978        71.61780        -1.60659
H         55.24804        71.11129        -2.27988
O         30.19050        69.78269        -1.95198
H         29.26639        69.96370        -2.22689
O         46.03044        65.30946        -3.19074
H         46.73514        64.93680        -3.76025
O         38.26762        61.71004         1.91704
H         37.51939        62.19198         2.32865
O         53.92013        55.13642         0.73621
H         53.72559        54.24911         1.13179
O         28.66274        63.08786        -1.22080
H         29.25787        63.55062        -1.84720
O         51.01769        46.07967        -2.12534
H         51.77246        46.43861        -2.63708
O         38.00541        67.10230        -2.63432
H         37.23649        66.68368        -3.07468
O         54.71893        68.03901        -2.41641
H         54.67306        67.20490        -2.93155
O         52.16320        58.20195         0.11223
H         52.43017        58.99937         0.63632
O         45.54520        65.23226         0.42716
H         44.85579        65.62061         1.00622
O         44.82802        61.18221        -3.33492
H         45.70714        61.31110        -3.77889
O         47.57363        61.36430        -3.60692
H         48.20075        60.67771        -3.92999
O         35.57811        52.61964         3.61962
H         36.13586        53.34763         3.98635
O         33.96300        67.96016         1.03617
H         34.81721        68.34141         1.33224
O         31.59038        69.32801         1.40251
H         32.39974        68.83933         1.69138
O         43.30224        52.12068        -2.17478
H         43.97257        51.71715        -2.76770
O         31.30707        72.32084        -2.06672
H         31.04518        71.43364        -2.41765
O         43.12994        74.16307        -2.35056
H         43.10844        73.22423        -2.63101
O         38.76162        67.69827         0.88019
H         39.53903        68.09069         1.33058
O         48.94506        56.87772         0.24348
H         49.79523        56.61212         0.65333
O         50.06823        61.25556         0.17091
H         49.25624        61.71445         0.47518
O         32.64943        66.83798        -2.23708
H         32.81880        67.71276        -2.66430
O         58.81195        65.17119         2.83740
H         59.43209        65.46788         3.53900
O         47.74322        56.68134        -3.19811
H         46.87363        56.87434        -3.60803
O         63.32027        71.92358         4.03591
H         62.37097        72.04804         4.27765
O         40.57353        44.43292         2.65627
H         40.54918        43.52380         3.02391
O         59.41015        58.93068        -2.14332
H         59.98727        59.70546        -2.33415
O         38.61117        47.78359        -1.18416
H         39.35232        47.33034        -1.64008
O         53.66258        60.47923         0.77765
H         54.50029        60.11194         1.13564
O         33.97359        63.74644         1.88127
H         34.63388        64.40491         2.18210
O         51.45052        69.98368        -2.88751
H         51.90485        69.32486        -3.46250
O         28.55611        63.06916         2.44578
H         27.92721        62.65892         3.07548
O         43.55190        63.59711        -3.19004
H         43.78354        62.70745        -3.56086
O         37.78318        74.85736        -2.16508
H         37.68328        74.08537        -2.75991
O         48.68173        34.94287         0.14928
H         48.41420        34.94708        -0.79235
O         41.52184        69.30268        -2.72420
H         40.72532        68.83013        -3.05110
O         49.97310        58.51214        -3.65494
H         49.32500        57.80484        -3.88850
O         33.86249        69.12684        -2.47693
H         33.89567        70.03855        -2.83824
O         50.16301        48.68161         1.35602
H         50.30431        47.77148         1.72439
O         58.41134        63.00842        -2.10694
H         58.01627        63.80889        -2.53012
O         53.01686        57.19708        -3.30980
H         52.14790        57.21098        -3.77667
O         55.51470        67.49486         1.87731
H         56.16347        67.93405         2.46789
O         35.60236        49.93351         3.50677
H         35.59470        50.87141         3.83232
O         40.67903        59.15810         2.01189
H         41.27514        58.50185         2.44374
O         49.03857        42.01461        -2.20949
H         48.77182        41.11129        -2.51246
O         43.49644        73.70757         1.27099
H         44.17946        73.28490         1.83303
O         33.11317        62.55320        -1.46994
H         32.38459        61.98216        -1.79173
O         58.85261        62.23647         2.22653
H         58.69056        63.08289         2.70991
H         23.15979        75.18112         1.99620
H         25.58580        75.19850         1.49285
H         27.99803        75.22013         1.02954
H         30.42537        75.23558         0.66939
H         32.85219        75.25607         0.19600
H         35.22168        75.32238        -0.31846
H         37.67154        75.31405        -0.16119
H         40.34348        75.35690        -0.89915
H         42.74290        75.30445        -0.67698
H         45.24832        75.31875        -0.26054
H         47.67813        75.29875        -0.29518
H         50.14666        75.31444        -0.28985
H         52.60036        75.29679        -0.05871
H         55.09645        75.27048         0.12869
H         57.51493        75.18013         0.75073
H         59.89436        75.07936         1.20617
H         62.28251        75.00222         1.54322
H         64.70617        74.98299         1.78786
H         67.26130        74.76698         2.14317
H         22.15776        69.30139         1.74129
H         20.98451        71.44646         2.15828
H         21.04020        73.92526         2.35183
H         24.57052        65.03525         1.12415
H         23.35074        67.16182         1.36752
H         27.10230        60.75624         1.14727
H         25.82590        62.95168         1.22902
H         29.62681        56.53480         1.20197
H         28.34003        58.62787         0.98764
H         32.16040        52.33355         1.27078
H         30.90147        54.43036         1.23836
H         34.57236        47.99013         1.86199
H         33.36973        50.19998         1.40197
H         36.86494        43.74842         1.12224
H         35.67483        45.90296         1.29867
H         39.33942        39.51760         1.35902
H         38.10661        41.61480         1.20573
H         41.73913        35.20291         1.22764
H         40.53184        37.37071         1.30552
H         45.07781        31.79721         0.99832
H         42.93458        33.05804         1.10932
H         47.25545        33.02298         0.88344
H         48.04493        35.63197         1.97324
H         49.76438        37.21134         0.17162
H         50.90207        39.39692         0.42218
H         52.16834        41.47126         0.26490
H         53.46275        43.56800        -0.09809
H         54.73538        45.68919        -0.25123
H         55.99901        47.81867        -0.48686
H         57.24543        49.97009        -0.52310
H         58.49545        52.08362        -0.36156
H         59.65798        54.35761         0.01512
H         60.66855        56.41711         0.60478
H         61.72281        58.44837         1.28474
H         62.90431        60.53768         1.90415
H         64.14689        62.60174         2.19687
H         65.41688        64.79877         2.52093
H         66.59150        66.85340         2.97907
H         67.67903        68.95389         3.71568
H         69.33345        71.25124         3.37299
H         69.17952        73.57653         2.82303
