         344
 CSIRO Nanostructure Databank - Neutral Graphene Oxide Data Set
C          1.48748         1.96277        -0.82329
C          1.40362         3.39187        -0.71221
C          2.63829         1.28631        -0.53584
C          2.50837         4.16390        -0.43673
C          1.27256         6.33796        -0.49578
C          1.24637         7.72610        -0.44078
C          2.46315         5.60922        -0.30164
C          2.42224         8.48608        -0.22857
C          1.20880        10.67315        -0.33258
C          1.20193        12.05815        -0.33448
C          2.40811         9.93625        -0.20092
C          2.40118        12.80631        -0.23358
C          1.21121        15.01329        -0.37217
C          1.23666        16.39774        -0.45461
C          2.40449        14.25621        -0.28821
C          2.46097        17.10378        -0.47757
C          2.50132        18.53727        -0.60547
C          3.83281         2.00152        -0.13280
C          3.87373         3.49462        -0.40975
C          4.89137         1.35462         0.42228
C          4.80354         4.20027         0.58876
C          3.66568         6.35189        -0.01747
C          3.64685         7.78595        -0.03745
C          4.86783         5.67392         0.29232
C          4.86673         8.51280         0.17995
C          3.63351        10.66006        -0.04792
C          3.62744        12.09673        -0.09560
C          4.85720         9.95690         0.13916
C          4.86452        12.81877        -0.02182
C          3.64993        14.95535        -0.27193
C          3.67645        16.37748        -0.38466
C          4.87773        14.23903        -0.13365
C          4.93402        17.06967        -0.47124
C          3.68889        19.21092        -0.66495
C          4.94773        18.51674        -0.61130
C          6.12113         2.04693         0.95062
C          6.13856         3.52045         0.64398
C          7.40189         1.38408         0.52346
C          7.31725         4.23598         0.70304
C          6.08536         6.38155         0.45138
C          6.06518         7.81035         0.39982
C          7.30637         5.65468         0.64373
C          7.32718         8.55212         0.75681
C          6.08948        10.68867         0.23681
C          6.09154        12.11462         0.13383
C          7.32264        10.00507         0.35908
C          7.32173        12.83489         0.25597
C          6.12283        14.94980        -0.14315
C          6.13125        16.35768        -0.39736
C          7.33342        14.25511         0.10097
C          7.41920        17.04225        -0.78084
C          6.15369        19.21256        -0.61142
C          7.41052        18.53945        -0.56845
C          8.59684         2.05872         0.55944
C          8.61739         3.51004         1.00531
C          9.84178         1.40084         0.31958
C          9.83926         4.25498         0.50184
C          8.60141         6.38721         0.87290
C          8.53988         7.78034         0.22823
C          9.80407         5.61383         0.39122
C          9.84357         8.51209         0.38685
C          8.53774        10.71689         0.41112
C          8.54007        12.11874         0.42893
C          9.84964        10.00376         0.16660
C          9.77459        12.86735         0.89619
C          8.60856        14.95866         0.09287
C          8.66181        16.37019        -0.25817
C          9.77064        14.29107         0.41234
C          9.85101        17.08917        -0.19701
C          8.60983        19.22288        -0.48959
C          9.86929        18.53849        -0.34217
C         11.06628         2.09279         0.27705
C         11.07309         3.52938         0.28231
C         12.31262         1.40081         0.19720
C         12.29183         4.23857         0.14721
C         10.99935         6.38049        -0.11285
C         11.02141         7.83291         0.30710
C         12.30495         5.66452         0.08976
C         12.29997         8.54629         0.29910
C         11.04341        10.64148         0.86243
C         11.08440        12.13204         0.64868
C         12.32335         9.93305         0.48104
C         12.28114        12.78058         0.56169
C         11.07601        14.91175         0.02105
C         11.09684        16.41929         0.10097
C         12.26800        14.27977         0.73565
C         12.26848        17.12069         0.27791
C         11.07636        19.21920        -0.27494
C         12.31838        18.54582         0.00093
C         13.52759         2.08460         0.14385
C         13.53645         3.52852         0.10188
C         14.78295         1.39103         0.15023
C         14.74713         4.23655        -0.01273
C         13.50793         6.37951         0.03855
C         13.52142         7.82576         0.10809
C         14.76038         5.67179        -0.04973
C         14.75112         8.52463         0.08329
C         13.54948        10.65452         0.41945
C         13.55672        12.07902         0.52127
C         14.77320         9.94556         0.22567
C         14.79133        12.77346         0.59262
C         13.56754        14.98558         0.31189
C         13.50770        16.43931         0.82250
C         14.82635        14.22881         0.69054
C         14.78922        17.16093         0.56118
C         13.54364        19.20132        -0.04978
C         14.80534        18.53417         0.22284
C         15.98584         2.06584         0.03298
C         15.99146         3.51618        -0.11724
C         17.24901         1.37486         0.13079
C         17.17628         4.20093        -0.34393
C         15.97257         6.37864        -0.19811
C         15.98977         7.81675        -0.13765
C         17.21481         5.64776        -0.38586
C         17.19144         8.53524        -0.27012
C         16.01042        10.65799         0.23517
C         16.01227        12.04599         0.49689
C         17.24707         9.94241        -0.02385
C         17.30311        12.73795         0.69756
C         16.00146        14.92758         0.76389
C         16.01042        16.40980         0.86982
C         17.30698        14.24951         0.89908
C         17.31537        17.14992         0.92139
C         16.02651        19.22327         0.16108
C         17.25616        18.68390         0.85253
C         18.44212         2.02119        -0.10080
C         18.41836         3.41468        -0.68689
C         19.71560         1.36714        -0.04830
C         19.66716         4.21706        -0.31282
C         18.40391         6.33731        -0.59221
C         18.39352         7.82175        -0.83654
C         19.66244         5.59235        -0.98653
C         19.70604         8.49643        -0.52153
C         18.48304        10.63297        -0.04143
C         18.55069        12.05277         0.26546
C         19.71273         9.89616        -0.28032
C         19.73171        12.76287         0.25566
C         18.54534        15.01227         0.62173
C         18.55957        16.40804         0.55162
C         19.82647        14.22040         0.70206
C         19.72953        17.14663         0.16959
C         18.54243        19.29836         0.40362
C         19.72618        18.60797         0.20909
C         20.90794         2.02856        -0.29526
C         20.95770         3.44691        -0.49097
C         22.17914         1.22800        -0.45153
C         22.16059         4.15558        -0.54257
C         20.95941         6.32715        -0.72078
C         20.92286         7.77886        -0.63878
C         22.14272         5.60754        -0.69925
C         22.13955         8.49892        -0.65100
C         20.94251        10.58903        -0.27622
C         21.04584        12.03465         0.14052
C         22.12954         9.89331        -0.56045
C         22.06912        12.79605        -0.69721
C         20.96142        14.98042         0.06322
C         20.90082        16.36637        -0.15431
C         22.09537        14.27583        -0.55752
C         22.06125        16.96497        -0.75660
C         20.93364        19.41551         0.20459
C         22.12502        19.02486        -0.40226
C         23.42634         2.02641        -0.16166
C         23.41021         3.45504        -0.25596
C         24.61044         1.35950         0.09010
C         24.59397         4.15786         0.03330
C         23.44996         6.31663        -0.77696
C         23.43921         7.82623        -1.02367
C         24.66572         5.60612        -0.26186
C         24.63934         8.56086        -0.44300
C         23.39347        10.61759        -0.85277
C         23.37910        12.10279        -0.93539
C         24.65015         9.92884        -0.49775
C         24.63988        12.83944        -0.74831
C         23.38840        14.97923        -0.68171
C         23.37755        16.38588        -0.69100
C         24.62207        14.27027        -0.76952
C         24.59141        17.15773        -0.69832
C         23.45615        19.37940        -0.13176
C         24.60937        18.58298        -0.43064
C         25.83798         2.06025         0.27497
C         25.82173         3.49129         0.29589
C         27.06768         1.37501         0.37941
C         27.05597         4.20434         0.48721
C         25.76938         6.38948         0.38131
C         25.76749         7.86877         0.21392
C         27.07215         5.68869         0.80431
C         27.09063         8.60679         0.42807
C         25.85865        10.70498        -0.31735
C         25.85103        12.11853        -0.56748
C         27.08109        10.03305        -0.10187
C         27.08843        12.82274        -0.60828
C         25.82811        15.01213        -0.84438
C         25.83340        16.43562        -0.77025
C         27.08460        14.24456        -0.99330
C         27.08738        17.13112        -0.68566
C         25.86237        19.19386        -0.21138
C         27.08902        18.50163        -0.31116
C         28.27608         2.07836         0.45857
C         28.25709         3.51326         0.52474
C         29.53176         1.38134         0.46775
C         29.54604         4.26216         0.78921
C         28.31442         6.40761         0.27640
C         28.28049         7.76414         0.00009
C         29.54509         5.67543         0.23576
C         29.51626         8.44454        -0.42114
C         28.28961        10.73828        -0.20142
C         28.30385        12.14730        -0.41328
C         29.54655         9.99250        -0.41938
C         29.57360        12.86572        -0.38212
C         28.41255        14.95641        -1.06239
C         28.37528        16.45110        -0.88525
C         29.63604        14.20337        -0.66445
C         29.63955        17.13230        -0.31439
C         28.27884        19.12119         0.20725
C         29.45758        18.42180         0.37412
C         30.73011         2.06320         0.40905
C         30.77719         3.47766         0.41357
C         31.96784         4.17265         0.15287
C         30.77718         6.31983        -0.01145
C         30.80502         7.74955        -0.28164
C         31.98136         5.55442        -0.00279
C         31.96707         8.49859        -0.37937
C         30.82394        10.66604        -0.22400
C         30.74975        12.11536         0.23750
C         31.97814         9.92480        -0.32022
C         32.04652        12.87049         0.11815
C         30.95050        14.97258        -0.71589
C         30.79603        16.28955         0.04156
C         32.12361        14.15384        -0.24515
C         31.68226        16.74202         0.97763
C         30.50403        18.86875         1.25363
C         31.55354        18.04893         1.56245
O         27.77224        14.50370        -2.29306
O         21.61072        13.56485        -1.82612
O         21.92169        18.09514        -1.49403
O         24.45527         5.75298        -1.71502
O         25.25787         7.23847         1.46623
O         17.42126        13.32973         2.05795
O         16.70605        16.72159         2.18597
O         23.37737        11.27892        -2.16430
O         29.31203        17.17237        -1.75004
O         29.42465         9.21477        -1.66502
O         19.57589         4.49645         1.11146
H         19.56955         3.63897         1.58693
O         13.69647        15.08495        -1.12849
H         12.86736        14.77059        -1.56448
O         27.17145         5.77612         2.25552
H         27.04025         6.73111         2.47915
O          8.32304         7.62621        -1.19890
H          9.10200         7.13233        -1.56722
O         21.64014        11.99677         1.48538
H         21.22646        12.73811         2.00849
O         22.14370         0.02903         0.32842
H         22.20697         0.27504         1.27369
O          8.69550         3.49377         2.48015
H          9.52423         3.02463         2.71936
O          4.46043         3.67954        -1.72629
H          3.86866         3.25269        -2.38040
O         19.63676         5.49738        -2.44331
H         19.07513         4.71848        -2.68794
O         18.25202         7.93814        -2.30772
H         18.86485         7.26605        -2.69999
O         27.26969         8.74012         1.87895
H         26.42241         9.06670         2.25201
O         29.61830         4.43244         2.25172
H         28.79154         4.91387         2.51723
O          7.49377        16.87389        -2.25528
H          8.16722        17.50830        -2.58285
O         18.40737         3.20077        -2.14015
H         17.59597         2.69374        -2.35615
O          7.39998         8.59018         2.21073
H          6.61258         9.07271         2.53784
O         12.02000        14.48006         2.14217
H         12.84598        14.30624         2.63905
O          8.79161         6.50948         2.30995
H          8.72814         5.59975         2.68340
O         23.51822         8.00508        -2.46526
H         24.13246         7.31683        -2.80872
O         13.42749        16.45803         2.28341
H         13.45647        17.39632         2.56616
O         10.84367        10.43278         2.30076
H         11.68283        10.65760         2.75553
O          6.05334         1.96678         2.43284
H          6.87866         2.39595         2.76493
O         31.22099        15.29282        -2.10002
H         30.52811        15.93338        -2.39791
O          9.60663        12.90923         2.35502
H          9.78768        11.99250         2.67879
O         17.09153        19.19811         2.22367
H         16.77121        18.42881         2.75933
O         20.13779        14.12040         2.17588
H         19.28259        13.84847         2.59544
O         10.81470         6.44465        -1.59447
H         11.57648         6.94637        -1.95873
O         10.06844        10.15313        -1.27095
H          9.36704         9.63103        -1.72166
O          4.21044         4.05902         1.91874
H          4.63819         3.28313         2.35921
O         30.44032        12.03110         1.66980
H         30.48656        12.93746         2.03981
O         11.16236        14.56828        -1.41522
H         10.41448        15.01305        -1.86974
H          0.57636         1.40734        -1.08712
H          0.40981         3.85018        -0.81697
H          2.65652         0.18636        -0.54005
H          0.33286         5.80778        -0.70355
H          0.28399         8.23263        -0.59346
H          0.24952        10.14844        -0.43508
H          0.23866        12.57500        -0.43895
H          0.23678        14.50650        -0.36955
H          0.29266        16.95818        -0.51896
H          1.54949        19.08601        -0.65953
H          4.83844         0.26334         0.56698
H          3.69957        20.30655        -0.76244
H          7.38303         0.31886         0.24603
H          6.14250        20.31344        -0.60125
H          9.83919         0.30871         0.18463
H          8.60670        20.32385        -0.47129
H         12.31050         0.30050         0.20777
H         11.09046        20.31072        -0.41627
H         14.78220         0.29608         0.25999
H         13.57110        20.27234        -0.30037
H         17.24578         0.31545         0.42974
H         16.02231        20.29271        -0.09926
H         19.74838         0.28587         0.15631
H         18.57845        20.39806         0.43352
H         22.22762         0.89819        -1.52922
H         20.91209        20.35215         0.78078
H         24.61376         0.25957         0.10745
H         23.62422        20.29150         0.45957
H         27.07739         0.27515         0.35957
H         25.88349        20.25038         0.09449
H         29.52087         0.28209         0.44357
H         28.17655        20.11567         0.66786
H         31.67195         1.50336         0.30373
H         32.90036         3.60449         0.01551
H         32.93876         6.05119        -0.20888
H         32.94434         7.99633        -0.35637
H         32.95906        10.41360        -0.23436
H         32.96367        12.34624         0.42798
H         33.10963        14.64037        -0.30369
H         32.54321        16.12277         1.26840
H         30.41613        19.86329         1.71419
H         32.32585        18.38423         2.26824
