         630
 CSIRO Nanostructure Databank - Neutral Graphene Oxide Data Set
C         23.32969        27.69408        -2.16692
C         23.40297        29.00441        -1.80062
C         22.99972        31.81579        -0.64381
C         23.00436        33.20515        -0.56781
C         23.05002        36.13051        -0.37183
C         23.07232        37.52647        -0.43730
C         23.07936        40.44183        -0.43253
C         23.09890        41.81354        -0.31725
C         23.11189        44.55667         0.62971
C         23.12539        45.86052         1.08859
C         25.57634        24.73342        -1.43568
C         24.46649        25.41765        -1.99652
C         25.48416        27.49125        -0.20575
C         23.95963        26.59697        -1.46218
C         25.42922        28.86704        -0.36093
C         24.09077        29.55805        -0.54846
C         25.39705        31.79277        -0.34358
C         24.19287        31.08281        -0.55728
C         25.39886        33.19396        -0.17068
C         24.19577        33.91798        -0.31536
C         25.48130        36.08207        -0.24720
C         24.22667        35.38275        -0.28323
C         25.50538        37.50641        -0.36631
C         24.27622        38.24161        -0.44712
C         25.50942        40.40754        -0.44928
C         24.28643        39.69922        -0.44780
C         25.55634        41.82423        -0.33291
C         24.31606        42.53714        -0.20043
C         25.51111        44.72146         0.08619
C         24.28215        43.92626         0.14795
C         25.52431        46.06289         0.67156
C         24.33707        46.61654         1.14930
C         25.47103        48.61094         1.99519
C         24.33085        47.91078         1.79853
C         27.91698        23.22468        -0.38884
C         27.90605        24.59422        -0.57756
C         26.65082        25.33577        -0.73272
C         27.93034        27.47144        -0.33508
C         26.66173        26.71503        -0.36885
C         27.89064        28.88145         0.24397
C         26.69956        29.58893        -0.39975
C         27.89507        31.72364         0.30183
C         26.69481        31.07225        -0.36229
C         27.91627        33.18030        -0.17257
C         26.65316        33.92147         0.30591
C         27.94114        36.05267        -0.07414
C         26.70712        35.37879        -0.10005
C         27.96744        37.47990        -0.21465
C         26.75758        38.18164        -0.38505
C         28.06871        40.38009        -0.44736
C         26.75829        39.64158        -0.61311
C         28.03552        41.82026        -0.11664
C         26.82710        42.50672        -0.16890
C         28.08401        44.65630         0.43342
C         26.85727        43.98174        -0.05897
C         28.08310        46.06088         0.68720
C         26.79369        46.80912         0.70693
C         28.02679        48.67180         1.99493
C         26.75578        48.16635         1.43001
C         28.05915        49.62108         2.97697
C         30.37457        23.13689        -0.14756
C         29.12066        22.50195        -0.23617
C         30.43388        24.56154        -0.23456
C         29.24382        25.27854        -0.82622
C         30.45782        27.44713        -0.03152
C         29.24082        26.77073        -0.52395
C         30.42367        28.87747         0.09904
C         29.19712        29.60675         0.00813
C         30.41468        31.72735         0.12765
C         29.19872        31.00061         0.05371
C         30.41801        33.17278         0.16216
C         29.20518        33.91401         0.10889
C         30.44223        36.03241         0.15026
C         29.19831        35.31811         0.07845
C         30.46456        37.44914         0.09271
C         29.23394        38.19722        -0.10745
C         30.55024        40.34924        -0.20576
C         29.26550        39.58229        -0.14453
C         30.44346        41.74836         0.36000
C         29.27539        42.47729         0.26969
C         30.50364        44.60145         0.80936
C         29.26862        43.91439         0.56361
C         30.52459        46.02219         0.97671
C         29.28990        46.73473         0.95822
C         30.60016        48.79746         1.81014
C         29.28029        48.16340         1.37861
C         30.48476        49.72574         2.95154
C         29.29700        50.11067         3.50169
C         32.78343        20.25828         0.13686
C         31.61044        20.97124         0.04738
C         32.83110        23.08400         0.21069
C         31.60086        22.39335         0.05963
C         32.84451        24.52849         0.24893
C         31.62356        25.25737         0.02465
C         32.86625        27.37781         0.46286
C         31.64827        26.70572         0.14777
C         32.79203        28.82960         0.90209
C         31.62204        29.59071         0.33108
C         32.88869        31.71790         0.33420
C         31.63454        30.99969         0.27942
C         32.89259        33.13835         0.26610
C         31.65927        33.86969         0.23615
C         32.92088        35.98480         0.32352
C         31.67427        35.29616         0.24534
C         32.94096        37.41491         0.38784
C         31.70555        38.15032         0.25267
C         32.95156        40.25732         0.46332
C         31.73784        39.55956         0.26439
C         32.95297        41.67119         0.59704
C         31.67060        42.36721         0.97252
C         32.95172        44.53678         0.79892
C         31.72208        43.86529         0.82502
C         32.99158        45.96567         0.92642
C         31.79198        46.70177         1.15176
C         33.13089        48.74786         1.47993
C         31.88621        48.07625         1.53405
C         33.32531        50.15538         1.83758
C         32.53655        50.81623         2.80135
C         33.62901        52.92683         2.40560
C         32.68830        52.17518         3.09869
C         35.29227        18.76160         0.35360
C         35.27249        20.19660         0.29123
C         34.04134        20.91724         0.24078
C         35.30036        23.03090         0.42770
C         34.05534        22.34653         0.29398
C         35.28370        24.47327         0.68568
C         34.04219        25.22763         0.47540
C         35.35854        27.34346         0.54468
C         34.07877        26.65781         0.55085
C         35.39585        28.81549         0.61917
C         34.11051        29.58324         0.77732
C         35.35178        31.67245         0.23486
C         34.10850        31.00896         0.40563
C         35.36108        33.10197         0.20012
C         34.13903        33.82980         0.26679
C         35.39892        35.94568         0.35152
C         34.15177        35.25881         0.31439
C         35.42050        37.37520         0.47398
C         34.17239        38.09870         0.49778
C         35.40062        40.24119         0.58789
C         34.19100        39.53350         0.53981
C         35.40732        41.65320         0.47558
C         34.16559        42.37494         0.57029
C         35.39864        44.50071         0.44691
C         34.18592        43.80893         0.63852
C         35.42846        45.93118         0.46618
C         34.23370        46.64862         0.80271
C         35.47742        48.76078         0.62190
C         34.28109        48.05755         0.97359
C         35.49641        50.18718         0.63972
C         34.41101        50.89315         1.28217
C         35.53711        53.06495         0.81608
C         34.51457        52.30263         1.50233
C         35.63005        54.45189         0.90420
C         37.73465        18.74197         0.11706
C         36.45204        18.05468         0.27619
C         37.73279        20.20103         0.24539
C         36.52442        20.90205         0.28877
C         37.76436        23.08623         0.18261
C         36.53227        22.35761         0.34587
C         37.81586        24.47444         0.19934
C         36.62063        25.22822         0.59576
C         37.78492        27.36919         0.01189
C         36.56735        26.67847         0.36977
C         37.75026        28.77324        -0.17530
C         36.58975        29.51733         0.11535
C         37.81188        31.64607        -0.14917
C         36.57201        30.93503         0.05623
C         37.82249        33.07578        -0.01416
C         36.60784        33.79915         0.15500
C         37.87712        35.91122         0.32888
C         36.62289        35.22164         0.27443
C         37.88877        37.35330         0.47619
C         36.64943        38.05399         0.54462
C         37.89661        40.22140         0.32937
C         36.68408        39.52175         0.88489
C         37.85804        41.62180         0.07188
C         36.62131        42.35903         0.25256
C         37.77384        44.49238        -0.21547
C         36.60949        43.77742         0.17218
C         37.80117        45.90219        -0.24081
C         36.62338        46.62622         0.15461
C         37.80942        48.77035        -0.20501
C         36.63320        48.05711         0.17656
C         37.79610        50.19476        -0.25621
C         36.61463        50.88056         0.13691
C         37.74256        53.10754        -0.52613
C         36.52513        52.34445        -0.00025
C         37.84251        54.53996        -0.17734
C         36.74406        55.16326         0.42738
C         40.24701        16.03354         1.23128
C         39.08630        16.60722         0.83252
C         40.28822        18.81288         0.55576
C         39.06493        17.99831         0.34517
C         40.28227        20.19607         0.37329
C         39.00108        20.97409         0.52220
C         40.28976        23.06859        -0.08025
C         38.99293        22.30130        -0.23309
C         40.27344        24.49464        -0.17959
C         39.03111        25.21448        -0.08351
C         40.24436        27.36343        -0.42067
C         39.00746        26.63004        -0.15943
C         40.22284        28.73225        -0.62505
C         38.92420        29.47976        -0.79966
C         40.24944        31.63998        -0.48265
C         39.00225        30.94653        -0.41650
C         40.27796        33.05797        -0.27007
C         39.06055        33.77605        -0.06253
C         40.36437        35.85652         0.35776
C         39.07207        35.18562         0.16524
C         40.38236        37.36777         0.57493
C         39.10683        38.07990         0.45405
C         40.31344        40.20066        -0.10549
C         39.09692        39.50599         0.23209
C         40.25985        41.59543        -0.44694
C         39.01329        42.28543        -0.37459
C         40.14611        44.46557        -1.17039
C         38.91788        43.71925        -0.73136
C         40.20204        45.93413        -0.94997
C         39.00189        46.62446        -0.58639
C         40.20724        48.77020        -0.79736
C         39.00582        48.04979        -0.53981
C         40.20445        50.20528        -0.84215
C         38.99033        50.91880        -0.62948
C         40.16434        53.04024        -1.08148
C         38.99663        52.34142        -0.75340
C         40.00865        54.51810        -1.43564
C         39.03989        55.23672        -0.51429
C         40.37529        57.29489        -0.55939
C         39.22676        56.58658        -0.19795
C         42.71909        16.11392         1.45614
C         41.50595        16.74811         1.17430
C         42.73836        18.85050         0.74393
C         41.51110        18.13279         0.82282
C         42.71933        20.21956         0.35941
C         41.50726        20.91582         0.24767
C         42.74755        23.07153        -0.07847
C         41.49310        22.36254         0.01368
C         42.74246        24.49021        -0.28267
C         41.50778        25.21003        -0.30314
C         42.72926        27.32855        -0.65158
C         41.50577        26.63131        -0.46421
C         42.74449        28.75147        -0.77519
C         41.45521        29.47048        -1.08235
C         42.69774        31.62360        -0.73616
C         41.46785        30.93563        -0.71304
C         42.72402        33.05329        -0.61666
C         41.52246        33.77004        -0.35083
C         42.77668        35.89575        -0.34249
C         41.58178        35.17046        -0.10756
C         42.82512        37.35146        -0.20357
C         41.69857        38.13434         0.46614
C         42.72692        40.21888        -0.44551
C         41.54772        39.52210        -0.12203
C         42.69616        41.61548        -0.75416
C         41.45878        42.28618        -0.78213
C         42.71696        44.44294        -1.41988
C         41.42438        43.68589        -1.26681
C         42.68253        45.96641        -1.60287
C         41.40329        46.63298        -1.10594
C         42.65362        48.77871        -1.13262
C         41.42315        48.05797        -1.01025
C         42.65551        50.19795        -1.20508
C         41.41650        50.91546        -1.10811
C         42.62887        53.01497        -1.55109
C         41.40062        52.33827        -1.25053
C         42.63914        54.48095        -1.78280
C         41.33917        55.25376        -1.62456
C         42.68869        57.32640        -1.34777
C         41.45455        56.66620        -1.20500
C         43.92752        16.82027         1.39142
C         45.21892        18.93225         1.01723
C         43.96663        18.17529         1.04441
C         45.23259        20.26364         0.56308
C         44.00313        20.86803        -0.06903
C         45.21112        23.05292        -0.15207
C         43.97162        22.37268        -0.00538
C         45.18973        24.44529        -0.48833
C         43.98116        25.16787        -0.52493
C         45.17143        27.30530        -0.97145
C         43.98104        26.60662        -0.73397
C         45.21382        28.74633        -0.90172
C         43.95047        29.46413        -0.79322
C         45.16293        31.62386        -0.77915
C         43.94543        30.90597        -0.81026
C         45.18431        33.02890        -0.83272
C         43.94968        33.76641        -0.76336
C         45.17294        35.92137        -1.09001
C         43.93286        35.18851        -0.74715
C         45.16125        37.43859        -1.17849
C         43.95381        38.06159        -0.52987
C         45.17844        40.20843        -0.63176
C         43.97212        39.51039        -0.50569
C         45.17589        41.64244        -0.69093
C         43.94497        42.33341        -0.87149
C         45.14606        44.45841        -0.77994
C         43.96052        43.74669        -1.01162
C         45.07319        45.92119        -0.61876
C         43.88986        46.66667        -1.02954
C         45.14601        48.79842        -0.98592
C         43.90012        48.05959        -1.03095
C         45.14767        50.19610        -1.29271
C         43.88724        50.90509        -1.38511
C         45.09217        53.03834        -1.93458
C         43.84336        52.31183        -1.59792
C         45.14370        54.50542        -1.79275
C         43.91330        55.22722        -1.67960
C         43.87187        56.62761        -1.59182
C         47.63171        19.04091         1.34786
C         46.43438        18.34987         1.44832
C         47.68215        20.35577         0.84598
C         46.45349        20.99201         0.48300
C         47.73455        22.99875        -0.26674
C         46.44191        22.34586         0.01722
C         47.74841        24.40491        -0.78001
C         46.42263        25.08039        -0.98380
C         47.72776        27.26844        -1.39462
C         46.40790        26.55659        -1.26666
C         47.69585        28.77934        -1.31786
C         46.41532        29.44414        -0.98215
C         47.68584        31.63776        -1.01996
C         46.45319        30.87709        -0.50526
C         47.63793        33.07283        -0.57610
C         46.44772        33.73429        -0.68003
C         47.71166        35.94971        -0.60828
C         46.46667        35.19908        -0.88377
C         47.67726        37.37867        -0.56907
C         46.45377        38.09747        -0.71413
C         47.65515        40.22810        -0.42948
C         46.43806        39.49258        -0.58983
C         47.64681        41.65258        -0.46278
C         46.40053        42.36284        -0.60587
C         47.63017        44.51696        -0.52300
C         46.38481        43.78262        -0.59481
C         47.64283        45.92573        -0.58460
C         46.38880        46.69084        -0.48116
C         47.60827        48.79376        -0.97109
C         46.37271        48.12004        -0.82318
C         47.62618        50.18827        -1.26096
C         46.39124        50.86288        -1.43967
C         47.66278        53.04489        -1.66177
C         46.42185        52.27680        -1.85198
C         47.60583        54.43146        -1.76700
C         46.39004        55.13718        -1.82261
C         50.17930        20.41963         0.98505
C         48.95306        21.05833         0.70864
C         50.19663        23.11281         0.16889
C         48.98342        22.40463         0.26535
C         50.22892        24.61871        -0.03413
C         48.97732        25.24110        -0.64720
C         50.30735        27.25626        -1.38506
C         48.98743        26.54804        -1.03734
C         50.28646        28.77602        -1.13838
C         48.99453        29.52740        -1.12110
C         50.12278        31.60887        -0.34861
C         48.96519        30.93984        -0.65657
C         50.15478        33.05379        -0.19105
C         48.84177        33.77842        -0.01918
C         50.11340        35.94336        -0.15532
C         48.89067        35.24744        -0.36417
C         50.08122        37.35116        -0.06750
C         48.88194        38.08326        -0.25889
C         50.07881        40.26702        -0.09287
C         48.87920        39.52699        -0.23847
C         50.10383        41.67123        -0.24335
C         48.86812        42.37042        -0.40510
C         50.10555        44.49875        -0.52004
C         48.87386        43.80286        -0.48162
C         50.10066        45.91314        -0.68697
C         48.86309        46.63258        -0.73591
C         50.05500        48.74026        -1.14396
C         48.84295        48.05942        -0.90725
C         50.11865        50.19214        -1.16312
C         48.88779        50.90283        -1.30387
C         50.11685        53.01246        -1.23604
C         48.89359        52.32830        -1.39946
C         51.37977        21.08935         0.81837
C         52.69382        23.16653         0.36824
C         51.41558        22.44824         0.44468
C         52.74045        24.48141        -0.11762
C         51.51254        25.07936        -0.77219
C         52.69490        27.30348        -0.60556
C         51.54042        26.58820        -0.81781
C         52.67591        28.76697        -0.52223
C         51.47722        29.44443        -0.57557
C         52.64712        31.62810        -0.19438
C         51.37734        30.83511         0.00022
C         52.62467        33.03409        -0.06832
C         51.34494        33.75254        -0.03842
C         52.55639        35.91272         0.19156
C         51.35676        35.21348         0.03315
C         52.59093        37.34721         0.24983
C         51.30529        38.05361         0.33693
C         52.59605        40.26783         0.16245
C         51.31301        39.57582         0.29540
C         52.58528        41.68314        -0.02789
C         51.35438        42.38815        -0.20212
C         52.60604        44.49967        -0.45373
C         51.37330        43.79996        -0.41163
C         52.68592        45.92593        -0.97449
C         51.31896        46.60339        -0.94522
C         52.93616        49.00665        -0.81462
C         51.19626        47.92164        -1.35767
C         52.55547        50.28268        -0.38807
C         51.32631        50.92009        -0.89635
C         51.28523        52.32587        -0.93773
C         55.10185        23.22619         0.75676
C         53.89318        22.56044         0.82067
C         55.16686        24.56983         0.32322
C         53.95680        25.21308        -0.07289
C         55.14568        27.36209        -0.23084
C         53.95166        26.62872        -0.31627
C         55.13403        28.80396        -0.33159
C         53.91516        29.49306        -0.35480
C         55.08562        31.68439        -0.33905
C         53.87745        30.94416        -0.29964
C         55.08406        33.07390        -0.07217
C         53.84310        33.73744         0.06537
C         55.08515        35.89881         0.39180
C         53.79592        35.14992         0.58173
C         55.05907        37.36893         0.23287
C         53.77568        38.09195         0.28371
C         55.03686        40.27369         0.37351
C         53.79530        39.53614         0.27117
C         55.02189        41.70476         0.33381
C         53.80864        42.40865         0.05512
C         55.02177        44.57005         0.13219
C         53.81330        43.82732        -0.12258
C         54.95102        46.00843         0.14646
C         53.82909        46.71439        -0.29036
C         54.73352        48.82410         0.76316
C         53.84190        48.15858        -0.13856
C         54.45464        50.16858         1.12822
C         53.35689        50.85810         0.63145
C         57.66159        24.67318         0.53310
C         56.41648        25.29955         0.28265
C         57.61752        27.42527        -0.07661
C         56.39644        26.69147        -0.01402
C         57.59903        28.83562        -0.37102
C         56.38834        29.50928        -0.43356
C         57.64592        31.76357        -0.48564
C         56.34283        30.97658        -0.62515
C         57.56290        33.17846        -0.06190
C         56.34739        33.79873         0.11918
C         57.53433        35.93935         0.79370
C         56.27964        35.23095         0.41346
C         57.48087        37.43497         1.09847
C         56.32897        38.13852         0.41687
C         57.46005        40.30712         0.84449
C         56.26418        39.60604         0.58127
C         57.42690        41.73773         0.89155
C         56.21929        42.43413         0.57909
C         57.37263        44.56540         0.97498
C         56.20781        43.87315         0.52975
C         57.39452        46.03684         0.99658
C         56.13351        46.78941         0.58697
C         56.98042        48.74440         1.85271
C         55.94565        48.14272         1.13920
C         58.84650        25.39197         0.48702
C         60.08804        27.51739         0.13670
C         58.84586        26.76720         0.17946
C         60.12562        28.81384        -0.22594
C         58.90181        29.56283        -0.67873
C         59.88859        31.62495         0.53858
C         58.85297        30.99502        -0.18003
C         59.91569        32.99281         0.71287
C         58.90996        33.87531         0.00973
C         60.05709        36.11083         0.54159
C         58.85358        35.25943         0.62983
C         59.99720        37.46997         0.68880
C         58.77939        38.18840         0.88798
C         59.89271        40.38192         1.21548
C         58.72189        39.60120         0.97973
C         59.82518        41.74478         1.40331
C         58.60425        42.45754         1.25124
C         59.57731        44.61675         2.07129
C         58.52297        43.88286         1.42442
C         59.46298        45.95479         2.35821
C         58.35299        46.71555         1.88382
C         58.15884        48.05575         2.20755
O         51.16107        38.84102         1.56927
O         57.04682        31.48305        -1.82059
O         58.18553        35.24130         1.94022
O         57.27498        46.66496        -0.32932
O         26.78011        48.07036        -0.02975
O         27.52967        40.07025        -1.79560
O         45.58986        46.35151         0.70063
O         55.95018        37.72838        -0.92301
O         27.69133        28.93085         1.64056
O         34.96756        29.33413         1.95129
O         28.60837        27.50260        -1.64794
O         38.53739        18.17932        -1.00864
O         36.04288        24.84424         1.88461
O         52.31658        48.50721        -1.97110
O         45.90490        35.40201        -2.25506
O         45.75256        52.53283        -3.13678
O         24.25288        26.79903        -0.09367
O         26.23953        44.64612        -1.19903
O         31.64480        50.10567         3.61888
O         46.24562        25.58227        -2.35509
O         47.73273        28.07449        -2.61520
O         29.94459        49.17908         0.55301
O         36.62650        52.78587        -1.40296
O         39.16859        44.02578        -2.16678
O         41.86914        54.95901        -2.95595
O         49.82125        29.48782        -2.35968
O         26.96497        30.37090        -1.61658
O         47.92078        23.29873        -1.73071
O         40.44846        36.44717         1.72306
O         42.08495        43.79434        -2.57987
O         38.85630        21.98646        -1.64430
H         38.97128        22.81253        -2.15808
O         26.59397        33.97873         1.75136
H         26.83168        33.07975         2.09777
O         27.69031        31.60998         1.73268
H         27.68725        30.61059         1.93249
O         23.24240        29.23451         0.58420
H         23.25413        28.25278         0.68130
O         51.28067        30.62187         1.46294
H         51.14712        31.50099         1.87828
O         31.52451        42.12832         2.43215
H         32.34661        42.44744         2.86261
O         48.61444        33.77486         1.44708
H         49.33301        34.30434         1.85577
O         50.33326        25.19106         1.30715
H         49.72539        24.70609         1.90321
O         53.07989        45.81431        -2.37624
H         53.10247        46.73110        -2.73442
O         38.65644        29.47634        -2.25230
H         39.52249        29.67490        -2.69266
O         47.61755        31.66950        -2.47432
H         48.21579        30.98413        -2.84369
O         32.49124        28.73743         2.33143
H         33.36277        28.70576         2.79378
O         57.17584        37.55917         2.52033
H         57.71196        36.86773         2.97438
O         51.47301        24.57884        -2.12817
H         51.02038        25.25316        -2.69054
O         44.11697        20.55288        -1.51184
H         44.92887        20.99477        -1.84312
O         39.34249        54.53243        -2.73016
H         40.05170        54.44957        -3.40969
O         29.43752        25.14659        -2.27524
H         28.98916        25.92847        -2.67830
O         50.40802        27.05447        -2.82452
H         49.74182        27.66131        -3.23442
O         30.80304        40.55843        -1.65381
H         29.93569        40.71514        -2.08881
O         45.04082        37.78343        -2.59111
H         45.54021        37.09077        -3.08503
O         38.94973        21.33883         1.94033
H         38.98886        20.51809         2.47419
O         42.73024        46.22295        -3.03601
H         42.23604        45.48492        -3.46660
O         36.82886        39.58462         2.35931
H         37.63290        39.07142         2.59142
O         42.15055        38.37335         1.83579
H         41.87151        37.58380         2.35680
O         59.00558        29.64099        -2.13978
H         58.24902        30.20277        -2.44379
O         53.67393        35.01318         2.05350
H         54.51029        34.61980         2.38393
O         46.59476        30.81626         0.94993
H         45.74496        30.50351         1.32541
O         27.83914        33.10401        -1.62216
H         27.91216        34.01265        -1.98247
O         41.37340        29.46865        -2.57962
H         41.63199        28.57105        -2.88296
O         59.37352        34.06739        -1.35917
H         59.35300        33.19563        -1.80892
H         22.86378        27.45190        -3.13624
H         22.92890        29.74189        -2.46810
H         22.04817        31.28362        -0.78203
H         22.05170        33.73861        -0.68599
H         22.07312        35.62990        -0.38284
H         22.11065        38.05289        -0.48927
H         22.10943        39.93386        -0.50265
H         22.14297        42.35278        -0.30899
H         22.16542        44.00117         0.66380
H         22.19843        46.31912         1.45994
H         25.77588        23.72938        -1.84269
H         24.05881        25.03487        -2.94543
H         25.44083        49.53944         2.58212
H         23.37729        48.27917         2.20359
H         26.96619        22.67585        -0.31610
H         27.12969        50.00980         3.41339
H         29.04581        21.41336        -0.11396
H         29.29212        50.78246         4.36879
H         32.73565        19.16242         0.09688
H         30.66874        20.41750        -0.06030
H         33.71073        54.00140         2.61273
H         32.05279        52.63573         3.86556
H         34.34657        18.21089         0.44290
H         34.84791        55.02328         1.42203
H         36.42800        16.95682         0.25436
H         36.75981        56.24837         0.59671
H         40.25897        14.98522         1.56470
H         38.15767        16.02012         0.81609
H         40.47662        58.34822        -0.26132
H         38.45950        57.11813         0.38166
H         42.72514        15.04939         1.73060
H         42.73640        58.40639        -1.14606
H         44.85561        16.27967         1.61956
H         44.80828        57.20058        -1.61904
H         48.55124        18.53440         1.66813
H         46.44988        17.32719         1.84686
H         48.52884        55.02481        -1.72225
H         46.44463        56.23392        -1.81552
H         50.20460        19.36954         1.30251
H         50.15259        54.10753        -1.30149
H         52.31084        20.53806         1.00032
H         52.20720        52.89399        -0.75116
H         56.01022        22.70613         1.08845
H         53.88369        21.53685         1.21678
H         55.10691        50.67131         1.85513
H         53.12697        51.86336         1.01134
H         57.70289        23.59970         0.76064
H         56.86970        49.78342         2.19314
H         59.80261        24.88597         0.68401
H         61.01620        26.98765         0.40036
H         61.09354        29.32984        -0.30541
H         60.70980        31.01640         0.94673
H         60.74717        33.46082         1.25849
H         61.01403        35.63062         0.29316
H         60.92874        38.04270         0.56892
H         60.86485        39.88144         1.32092
H         60.74884        42.29186         1.63576
H         60.45926        44.07212         2.43419
H         60.24132        46.46152         2.94724
H         58.91629        48.57585         2.81179
