         334
 CSIRO Nanostructure Databank - Neutral Graphene Oxide Data Set
C         30.38793        57.31141        -0.45378
C         30.62197        58.76887        -0.79113
C         29.78817        59.47504        -1.66296
C         31.31462        61.38656        -2.27533
C         30.12476        60.67514        -2.34866
C         32.81633        52.92499        -0.09331
C         32.82931        54.43206         0.07216
C         31.67563        55.17618        -0.17335
C         32.84987        57.26409         0.27167
C         31.67481        56.58461        -0.09838
C         32.91844        58.72186         0.21904
C         31.73773        59.39118        -0.18903
C         33.62744        61.32367        -1.18585
C         32.25114        61.19878        -1.21286
C         35.21557        48.61807         0.57561
C         35.18123        50.04449         0.52993
C         34.00853        50.76846         0.58888
C         35.25221        52.97416         0.46310
C         33.94818        52.26941         0.72610
C         35.26846        54.38030         0.54380
C         34.02582        55.10745         0.41291
C         35.26763        57.21237         0.80250
C         34.04767        56.52684         0.52665
C         35.21819        58.67089         1.19165
C         34.12928        59.41253         0.41948
C         35.56239        61.40669         0.28774
C         34.42580        60.71642        -0.13096
C         37.69384        44.33146         0.51899
C         37.67763        45.73686         0.57791
C         36.46521        46.49148         0.57479
C         37.68492        48.65059         0.66995
C         36.43160        47.90450         0.58184
C         37.73594        50.02254         0.51541
C         36.46832        50.74031         0.24373
C         37.78489        53.02337         0.10875
C         36.47953        52.24049         0.14994
C         37.73005        54.29351         0.95954
C         36.48440        55.09742         0.68453
C         37.75924        57.21387         0.94456
C         36.49019        56.50704         0.81021
C         37.75249        58.67138         1.03916
C         36.56043        59.36007         1.14259
C         37.80903        61.53257         1.05488
C         36.50947        60.85887         1.31408
C         40.22282        40.01691         0.61314
C         40.22213        41.47576         0.95356
C         38.94009        42.19853         0.65317
C         40.17400        44.31998         0.49526
C         38.91771        43.59055         0.56155
C         40.15511        45.74889         0.59521
C         38.93224        46.43404         0.69975
C         40.23236        48.64500         0.92546
C         38.90711        47.87950         0.95460
C         40.21117        50.09260         0.66264
C         38.98495        50.77830         0.55848
C         40.21177        52.91538         0.62031
C         39.00796        52.20223         0.47986
C         40.20908        54.37080         0.67203
C         39.00510        55.08729         0.79624
C         40.27007        57.22356         1.18088
C         38.96164        56.51066         0.90372
C         40.23903        58.71073         0.88312
C         39.01880        59.39032         0.94461
C         40.21481        61.53304         0.60566
C         39.00163        60.83598         0.84476
C         42.69854        35.78203         0.30754
C         42.66271        37.19269         0.25042
C         41.44715        37.90641         0.33411
C         42.65584        40.06081         0.17634
C         41.41172        39.33096         0.37049
C         42.63273        41.47599         0.14523
C         41.42830        42.19870         0.40986
C         42.62043        44.32505        -0.06244
C         41.38472        43.59548         0.29664
C         42.63007        45.81065         0.07315
C         41.39093        46.50893         0.49682
C         42.65590        48.61208         0.09596
C         41.42814        47.87635         0.57947
C         42.67707        50.07348         0.47103
C         41.45639        50.78584         0.57785
C         42.69357        52.92753         0.60528
C         41.46274        52.21769         0.63182
C         42.66794        54.36932         0.59637
C         41.46743        55.06088         0.61200
C         42.76205        57.25843         0.71277
C         41.42798        56.55864         0.40271
C         42.68489        58.72270         0.38188
C         41.45160        59.41265         0.61262
C         42.65366        61.53281         0.20879
C         41.43615        60.84585         0.45780
C         45.17863        32.97600         0.28534
C         43.96182        33.65387         0.33080
C         45.15414        35.79135         0.11816
C         43.92220        35.07123         0.25226
C         45.14063        37.21549         0.02679
C         43.90375        37.91843         0.10499
C         45.11248        40.01603        -0.24486
C         43.88823        39.33470         0.01604
C         45.05857        41.45639        -0.50247
C         43.84907        42.19876        -0.13853
C         45.15750        44.28691        -0.04514
C         43.90074        43.58444        -0.09898
C         45.14240        45.67410         0.48311
C         43.91645        46.49958         0.34983
C         45.13933        48.62339         0.74398
C         43.91196        47.85404         0.47928
C         45.14653        50.06403         0.44580
C         43.90163        50.77221         0.45690
C         45.17268        52.86917         0.33304
C         43.92399        52.20585         0.49803
C         45.20349        54.34989         0.31534
C         43.94715        55.10451         0.48888
C         45.07221        57.18588        -0.30812
C         43.94134        56.53881         0.11962
C         44.99904        58.65992        -0.63654
C         43.82619        59.39066        -0.02671
C         45.10516        61.49184        -0.16426
C         43.85626        60.83429        -0.02766
C         46.38342        33.67075         0.16251
C         47.61215        35.81470        -0.04424
C         46.39574        35.08550         0.07558
C         47.61921        37.21067        -0.14406
C         46.36808        37.92809        -0.12417
C         47.60428        40.07591        -0.42410
C         46.35069        39.34060        -0.27478
C         47.62426        41.44536        -0.54680
C         46.37669        42.22431        -0.63662
C         47.66372        44.30412        -0.05825
C         46.37897        43.63797        -0.22332
C         47.70773        45.70022         0.24238
C         46.46432        46.38250         0.65552
C         47.64804        48.61817         0.30255
C         46.46447        47.87499         0.74811
C         47.60618        49.99723         0.25253
C         46.37106        50.73460         0.34179
C         47.62694        52.86665        -0.05548
C         46.38283        52.16959         0.21449
C         47.63988        54.38326        -0.04967
C         46.30194        54.96765        -0.52261
C         47.53995        57.15890        -0.65389
C         46.33278        56.48665        -0.50205
C         47.54312        58.64934        -0.92614
C         46.31125        59.36952        -0.45372
C         47.59209        61.44724        -0.24884
C         46.32814        60.76471        -0.30016
C         48.84224        37.94684        -0.24328
C         50.09782        40.05526        -0.36950
C         48.86650        39.33620        -0.36264
C         50.15367        41.45198        -0.48111
C         48.89117        42.20338        -0.83481
C         50.11097        44.31456        -0.27785
C         48.87673        43.62371        -0.31305
C         50.13517        45.73066        -0.09254
C         48.90515        46.42443         0.15559
C         50.03709        48.56270        -0.25389
C         48.89493        47.88399         0.09865
C         49.88457        49.99500        -0.74596
C         48.91844        50.73768         0.15821
C         50.07471        52.87712        -0.46215
C         48.81717        52.19368        -0.21162
C         50.10687        54.27178        -0.57657
C         48.80041        54.97555        -0.84515
C         50.03026        57.16736        -0.67850
C         48.81327        56.47827        -0.69261
C         50.01822        58.62620        -0.58688
C         48.83905        59.33052        -0.56262
C         50.03485        61.45316        -0.07929
C         48.81318        60.76967        -0.32669
C         51.35373        42.18004        -0.44355
C         52.56324        44.34762        -0.51603
C         51.36419        43.60934        -0.44003
C         52.57295        45.76158        -0.44287
C         51.35900        46.43603        -0.19482
C         52.51576        48.58533        -0.72041
C         51.37666        47.92632         0.02313
C         52.32895        49.87617        -1.13759
C         51.20472        50.72431        -0.81793
C         52.54335        52.85946        -0.20364
C         51.29384        52.08580        -0.61182
C         52.62211        54.27526        -0.82366
C         51.31415        55.03608        -0.66089
C         52.60896        57.18872        -0.70284
C         51.28645        56.42713        -0.67312
C         52.45611        58.56192        -0.01655
C         51.33060        59.37706        -0.65504
C         52.47503        61.43216         0.17476
C         51.27293        60.79096        -0.11846
C         53.80255        46.53281        -0.60337
C         55.13258        48.65059        -0.99526
C         53.79996        47.89430        -0.78815
C         55.17397        50.03059        -0.27125
C         54.16889        50.99221        -0.85371
C         55.06718        52.84031         0.44281
C         53.89743        52.16441        -0.24872
C         55.14356        54.25421        -0.18757
C         53.79914        54.97200        -0.14183
C         55.02601        57.19050         0.17489
C         53.76013        56.45047        -0.02973
C         54.99018        58.61342         0.22255
C         53.76582        59.32046         0.06430
C         54.93512        61.44304         0.41463
C         53.73364        60.73573         0.19925
C         56.47191        50.79601        -0.16191
C         57.56567        52.93057         0.39036
C         56.40716        52.13456         0.19783
C         57.51841        54.35096         0.56294
C         56.29304        55.05651         0.35869
C         57.44048        57.20699         0.69181
C         56.23813        56.47470         0.41582
C         57.41813        58.63175         0.71641
C         56.19943        59.33560         0.48644
C         57.37412        61.47145         0.81437
C         56.17266        60.76776         0.56117
C         58.68887        55.08738         0.85916
C         59.85002        57.24141         1.18377
C         58.67106        56.50272         0.92081
C         59.84120        58.65384         1.21952
C         58.61636        59.35756         0.98469
C         59.80418        61.48913         1.28555
C         58.59405        60.78889         1.02212
C         61.02425        59.40016         1.48009
C         60.99244        60.79393         1.50790
O         42.49470        45.21283        -1.26676
O         39.59859        48.27237         2.19337
O         53.34442        50.50129        -1.88172
O         31.66905        60.77175         0.01006
O         36.38426        51.39939        -1.08226
O         45.57932        41.88449        -1.81302
O         53.41955        55.58936         1.12612
O         44.92421        54.91295         1.64838
O         45.80130        45.75045         1.79803
O         45.86161        48.34314         1.99215
O         33.58912        52.54596         2.12043
H         34.30384        52.19695         2.69343
O         52.02855        58.30572         1.34357
H         52.58048        57.58516         1.71885
O         53.03549        57.30244        -2.08635
H         52.55518        58.07841        -2.47575
O         51.62764        59.52804        -2.08608
H         50.85051        59.95877        -2.50272
O         42.60025        48.59936        -1.37150
H         42.53536        47.66244        -1.66129
O         32.96429        52.61885        -1.47976
H         33.24710        51.68355        -1.55924
O         40.44767        57.05876         2.61064
H         41.39056        57.27961         2.81991
O         47.83580        54.79603         1.32233
H         46.98304        54.71511         1.80496
O         55.40778        48.81415        -2.38634
H         54.69516        49.37956        -2.76262
O         45.97997        54.53488        -1.86201
H         46.78183        54.66774        -2.42383
O         55.45927        54.01511        -1.58593
H         55.57510        54.87939        -2.03255
O         54.87406        52.97154         1.86353
H         54.80139        52.06322         2.22930
O         37.65440        53.85798         2.35106
H         37.78529        54.64652         2.91964
O         49.30211        49.94190        -2.07388
H         49.95901        49.54790        -2.68451
O         52.26225        53.05633         1.20990
H         53.07860        53.39468         1.65594
O         49.52262        50.68884         1.48772
H         49.00970        51.27734         2.08098
O         47.48632        58.74748        -2.40794
H         46.54663        58.54554        -2.65394
O         36.01783        61.16845         2.68370
H         36.77168        61.03242         3.29664
O         48.56165        54.72347        -2.27611
H         49.29821        55.13436        -2.77661
O         52.86534        54.18077        -2.24022
H         52.94812        55.09833        -2.58573
O         37.97898        53.45851        -1.25901
H         37.67134        52.71940        -1.83312
O         40.36090        41.53648         2.44890
H         40.32780        42.48556         2.69849
O         51.58669        48.14661         1.46346
H         51.21065        49.02824         1.68657
O         44.74786        58.70160        -2.10893
H         44.47336        59.61968        -2.32393
O         34.79186        58.70432         2.59782
H         34.94398        59.63704         2.89893
O         54.70844        49.80379         1.10515
H         55.23880        49.07380         1.48900
O         48.92365        42.34094        -2.30256
H         49.77635        42.76756        -2.53362
O         41.19205        56.77760        -1.01017
H         40.41087        56.24757        -1.27605
O         43.02132        57.20831         2.15904
H         43.60320        56.43838         2.35085
O         29.69852        56.63300        -1.50514
H         30.29096        56.58330        -2.28276
H         29.70513        57.26870         0.44331
H         28.89075        58.94789        -2.02311
H         31.56443        62.08414        -3.08876
H         29.43363        60.95950        -3.15801
H         31.83219        52.51791         0.28379
H         30.74859        54.66550        -0.47232
H         34.15222        61.87958        -1.97719
H         34.26603        48.06460         0.62224
H         33.06377        50.22603         0.75330
H         35.80146        62.36971        -0.18784
H         36.74191        43.78062         0.49201
H         35.51096        45.94576         0.52657
H         37.82040        62.63298         1.03161
H         39.29020        39.44845         0.74934
H         37.99239        41.64132         0.70456
H         40.19499        62.63029         0.52943
H         41.75610        35.22273         0.40824
H         40.50630        37.34812         0.45367
H         42.65528        62.63287         0.19261
H         45.19057        31.87869         0.34907
H         43.02080        33.09425         0.43096
H         45.14467        62.58848        -0.09107
H         47.33514        33.12119         0.13085
H         48.56517        35.26512        -0.06149
H         47.59486        62.53333        -0.07271
H         49.79270        37.39270        -0.21083
H         51.03390        39.49129        -0.23220
H         50.00075        62.51448         0.21095
H         52.31166        41.64243        -0.36785
H         53.51309        43.80968        -0.65653
H         52.46619        62.50231         0.43297
H         54.75448        45.97967        -0.62756
H         55.95090        48.00674        -0.57624
H         54.90781        62.53902         0.50459
H         57.44366        50.31362        -0.35115
H         58.55239        52.44187         0.38287
H         57.35414        62.57028         0.86449
H         59.63808        54.55494         1.01769
H         60.79315        56.70296         1.35974
H         59.79310        62.58805         1.31524
H         61.96780        58.86532         1.65984
H         61.91710        61.35287         1.71057
