         424
 CSIRO Nanostructure Databank - Neutral Graphene Oxide Data Set
C          1.25450         3.52225         0.97980
C          0.04188         4.14891         0.72941
C          1.14791         6.31768         0.57603
C         -0.01760         5.53840         0.54128
C          1.07080         7.80588         0.55130
C         -0.06255         8.51786        -0.05624
C          1.15552        10.66731        -0.09632
C         -0.03301         9.86365        -0.26482
C          1.14380        12.09283        -0.31842
C         -0.06443        12.82945        -0.49212
C          1.13963        14.96015        -0.60949
C         -0.06462        14.20227        -0.63150
C          1.16335        16.40375        -0.69923
C         -0.03716        17.15059        -0.80647
C          1.18634        19.26306        -0.85459
C         -0.02573        18.52987        -0.86785
C          1.19469        20.71046        -0.91552
C         -0.01077        21.46058        -0.91389
C          1.19930        23.57445        -1.03594
C         -0.00540        22.84529        -0.95427
C          1.21731        25.02004        -0.99278
C          0.04082        25.79511        -0.60122
C          1.20189        27.88557        -1.26879
C          0.02964        27.14438        -0.65967
C          1.27696        29.35349        -0.92765
C          0.13242        30.13557        -1.10988
C          1.33005        32.14868        -0.44761
C          0.15702        31.51039        -0.88564
C          1.35861        33.57795        -0.17193
C          0.25721        34.41166        -0.46645
C          1.39865        36.34940         0.46540
C          0.29084        35.76918        -0.18735
C          1.38272        37.80044         0.68808
C          3.69813         3.63364         1.30758
C          2.46176         4.26519         0.98078
C          3.64227         6.42829         0.68185
C          2.40514         5.67751         0.73681
C          3.63070         7.80280         0.64123
C          2.37527         8.59600         0.65675
C          3.59271        10.72866         0.10016
C          2.38225        10.01464         0.19958
C          3.60663        12.12687        -0.17667
C          2.36556        12.82791        -0.32226
C          3.59319        14.98888        -0.41092
C          2.36469        14.25482        -0.46638
C          3.63800        16.40725        -0.52388
C          2.40095        17.11699        -0.67277
C          3.66395        19.24557        -0.83376
C          2.41384        18.54440        -0.77924
C          3.67000        20.67219        -0.98053
C          2.43080        21.40438        -0.98474
C          3.66256        23.52215        -1.23839
C          2.43990        22.84135        -1.08990
C          3.66938        24.99107        -1.56677
C          2.41749        25.70744        -1.16744
C          3.66057        27.76532        -0.64164
C          2.47714        27.13334        -0.99806
C          3.69659        29.18911        -0.35432
C          2.48723        29.96791        -0.52478
C          3.71514        31.98993         0.21899
C          2.50817        31.36890        -0.25089
C          3.70661        33.35607         0.63012
C          2.50395        34.15306         0.44177
C          3.50598        35.94138         1.83431
C          2.48666        35.52017         0.82620
C          3.82300        38.05504         0.42749
C          2.47342        38.59737         0.65133
C          6.14628         3.69771         1.51565
C          4.93083         4.29698         1.18101
C          6.22005         6.39385         0.54674
C          4.91027         5.60970         0.42735
C          6.19909         7.88975         0.55178
C          4.88279         8.57321         0.70743
C          6.15974        10.66418         0.08438
C          4.85635        10.05060         0.45626
C          6.11805        12.16145        -0.20291
C          4.82596        12.86296        -0.17291
C          6.01901        15.01841        -0.00364
C          4.81236        14.28304        -0.20880
C          6.12960        16.41902        -0.29701
C          4.89285        17.11048        -0.52975
C          6.13647        19.22597        -0.88480
C          4.89623        18.52979        -0.74668
C          6.13938        20.64030        -1.09601
C          4.90051        21.36121        -1.10639
C          6.11403        23.48825        -1.33672
C          4.90467        22.80678        -1.22877
C          6.18830        24.98826        -1.38015
C          4.89842        25.67697        -1.05979
C          6.11999        27.63060        -0.21693
C          4.89628        26.98720        -0.60580
C          6.05767        28.95433         0.48158
C          4.86705        29.80120         0.09116
C          6.10580        31.84755         0.77668
C          4.90367        31.20917         0.36745
C          6.09728        33.20586         1.11173
C          4.89082        33.93677         1.13295
C          6.08406        36.11876         1.35067
C          4.89879        35.28712         1.82802
C          6.10441        37.50655         1.20467
C          4.85807        38.29961         1.27157
C          8.62139         3.72005         1.73214
C          7.41345         4.37375         1.42300
C          8.64202         6.50681         1.20191
C          7.44665         5.75206         1.05437
C          8.64520         7.96597         1.11039
C          7.41918         8.67221         0.88864
C          8.59700        10.85759         0.79778
C          7.38673        10.03998         0.62122
C          8.66014        12.20324         0.08513
C          7.31337        12.91042         0.18117
C          8.96174        15.21588         0.03727
C          7.11843        14.23470         0.47679
C          8.67849        16.47676        -0.58607
C          7.39343        17.11810        -0.51868
C          8.59792        19.20930        -1.15162
C          7.37932        18.51037        -0.87398
C          8.59820        20.63059        -1.33238
C          7.37143        21.31763        -1.29454
C          8.64272        23.48594        -1.19089
C          7.38570        22.77005        -1.65470
C          8.62564        24.81280        -0.89027
C          7.32703        25.45169        -0.47160
C          8.56233        27.60313        -0.02043
C          7.35423        26.95221        -0.28935
C          8.56910        29.01196         0.28428
C          7.37211        29.68708         0.48305
C          8.63125        31.83375         0.84053
C          7.36098        31.05867         1.09513
C          8.63372        33.20363         1.03651
C          7.37727        33.89555         1.54091
C          8.62438        36.11717         1.49005
C          7.35664        35.35648         1.04585
C          8.58786        37.55826         1.01859
C          7.32165        38.20029         0.98290
C         11.10068         3.72823         1.86587
C          9.86134         4.41082         1.68851
C         11.13255         6.58575         1.65285
C          9.84813         5.82250         1.46991
C         11.11245         7.96732         1.04631
C          9.88416         8.66130         1.07394
C         11.14681        10.80917         0.51436
C          9.91447        10.13622         1.00865
C         11.14221        12.13021         0.13293
C          9.95956        13.00255         0.48582
C         11.05216        14.77845        -1.12491
C          9.95703        14.33173        -0.25987
C         11.02708        16.33243        -1.43514
C          9.82702        17.10606        -1.10418
C         11.09157        19.15601        -1.47557
C          9.85022        18.51213        -1.26502
C         11.12035        20.62045        -1.81906
C          9.84709        21.34848        -1.46021
C         11.12430        23.41615        -1.02745
C          9.89049        22.74027        -1.29311
C         11.13637        24.81518        -0.74375
C          9.87954        25.64539        -0.92861
C         11.09115        27.60358         0.00888
C          9.82536        26.78768         0.09482
C         11.07000        29.01554         0.16601
C          9.84060        29.71721         0.35808
C         11.07416        31.84563         0.47438
C          9.84546        31.12433         0.54744
C         11.06845        33.26332         0.63650
C          9.85325        33.95420         0.91727
C         11.04745        36.08477         0.81554
C          9.86540        35.37952         1.02075
C         11.07562        37.57799         0.57837
C          9.74636        38.24471         0.74873
C         13.59463         3.67351         1.59913
C         12.34432         4.38092         1.61934
C         13.55686         6.39315         0.82761
C         12.34175         5.76027         1.33721
C         13.54491         7.84834         0.46378
C         12.30955         8.63844         0.67985
C         13.57461        10.65211        -0.03913
C         12.33536        10.00353         0.35982
C         13.56486        11.95721        -0.47143
C         12.25429        12.62171        -0.75852
C         13.53996        14.77757        -1.20797
C         12.34276        14.12148        -0.94766
C         13.54696        16.19742        -1.78113
C         12.30338        17.01232        -1.49437
C         13.59111        19.11734        -1.43303
C         12.31570        18.41418        -1.47100
C         13.59015        20.54761        -1.28304
C         12.37938        21.28979        -1.32855
C         13.57310        23.32409        -0.65816
C         12.36426        22.66590        -0.99450
C         13.54735        24.70289        -0.05404
C         12.29938        25.47713        -0.36882
C         13.54819        27.61645        -0.13654
C         12.30545        26.90964        -0.15364
C         13.54757        29.03948        -0.05919
C         12.30750        29.73928         0.11282
C         13.53763        31.87922         0.17702
C         12.30464        31.15310         0.24927
C         13.53149        33.29419         0.33737
C         12.29756        33.98533         0.56384
C         13.52526        36.12990         0.69109
C         12.28824        35.39686         0.67777
C         13.53094        37.53301         1.00406
C         12.23053        38.23017         1.35916
C         16.06610         3.63350         1.44700
C         14.82452         4.32552         1.38779
C         16.04277         6.43315         0.90474
C         14.85093         5.73083         1.05586
C         16.05836         7.85808         0.57230
C         14.83703         8.56160         0.37829
C         16.06545        10.60837        -0.17335
C         14.83343         9.92268         0.05667
C         16.06833        11.96241        -0.61059
C         14.78341        12.57557        -1.09899
C         16.01927        14.76633        -1.22773
C         14.78098        14.08621        -1.09721
C         16.01099        16.23152        -1.32572
C         14.82204        16.94168        -1.45551
C         16.03254        19.08391        -1.14620
C         14.79795        18.38284        -1.36342
C         16.04523        20.50605        -1.03990
C         14.82379        21.23529        -1.06453
C         16.02883        23.36503        -0.61020
C         14.81181        22.64833        -0.77513
C         16.03371        24.77870        -0.42023
C         14.81259        25.48639        -0.27814
C         16.02473        27.62231        -0.25595
C         14.79346        26.89716        -0.23128
C         16.02061        29.05476        -0.26459
C         14.77069        29.76510        -0.16240
C         15.97344        31.94245        -0.21523
C         14.76603        31.19419        -0.06775
C         15.95251        33.33650        -0.07960
C         14.74533        34.02727         0.24303
C         15.97483        36.18606         0.44744
C         14.74297        35.45048         0.44944
C         15.96199        37.59286         0.72052
C         14.71512        38.23356         1.01501
C         18.53282         3.60574         1.28530
C         17.27959         4.30361         1.24842
C         18.51477         6.40885         0.89639
C         17.29460         5.72757         1.02629
C         18.54890         7.91740         0.93658
C         17.27330         8.56344         0.46840
C         18.53798        10.61868        -0.15808
C         17.29437         9.92137         0.06115
C         18.52670        11.97601        -0.55876
C         17.27333        12.66802        -0.77622
C         18.51631        14.76345        -1.51120
C         17.23892        14.05905        -1.13941
C         18.49227        16.24561        -1.19965
C         17.26759        16.93645        -1.19428
C         18.48398        19.06333        -0.88536
C         17.25638        18.36247        -1.07462
C         18.46736        20.48808        -0.69835
C         17.28809        21.19279        -0.83416
C         18.54375        23.36343        -0.43765
C         17.31539        22.69057        -0.99520
C         18.52563        24.78095        -0.30397
C         17.27633        25.49733        -0.37082
C         18.49410        27.63745        -0.13584
C         17.26338        26.91323        -0.26649
C         18.47576        29.06933        -0.15054
C         17.24118        29.75964        -0.31435
C         18.50411        31.93618        -0.24157
C         17.23850        31.22658        -0.66672
C         18.53135        33.39382        -0.34852
C         17.17424        34.14003        -0.29086
C         18.42292        36.25380         0.18784
C         17.19871        35.54336         0.14090
C         18.39924        37.66626         0.45066
C         17.16645        38.31250         0.69062
C         19.71620         4.27222         1.09856
C         20.95597         6.38634         0.66327
C         19.73883         5.69112         0.90536
C         20.97094         7.74149         0.34908
C         19.79832         8.52680         0.34416
C         20.99197        10.61435        -0.27923
C         19.78461         9.90073        -0.02362
C         20.98575        11.95267        -0.58631
C         19.76913        12.68476        -0.74210
C         20.96452        14.83645        -1.03681
C         19.77307        14.06980        -1.03779
C         20.95144        16.21367        -1.13138
C         19.72414        16.95655        -1.13171
C         20.93871        19.16763        -1.07816
C         19.72108        18.37522        -0.98583
C         20.94879        20.49192        -0.81025
C         19.73480        21.13580        -0.18820
C         20.89541        23.34913         0.13599
C         19.72325        22.64794        -0.21850
C         20.91099        24.73372         0.18856
C         19.73278        25.48303        -0.03012
C         20.91056        27.67954         0.17126
C         19.72343        26.93501         0.01028
C         20.89136        29.07025         0.19660
C         19.69599        29.78994         0.04114
C         20.84437        32.00174         0.42090
C         19.67240        31.25227         0.08107
C         20.85945        33.38747         0.41687
C         19.72987        34.13779         0.03502
C         20.87327        36.34127         0.15490
C         19.69093        35.57761         0.08829
C         20.83237        37.73228         0.32231
C         19.62261        38.39039         0.48611
O          6.40687         7.17157        -0.71085
O          6.24289        11.15177        -1.29509
O          1.52280         8.38421         1.82670
O          4.89534         9.52597         1.83031
O         17.84810        33.90598        -1.57122
O         13.38059         6.84356        -0.60639
O          8.13246        14.93124         1.13975
O          3.16155        36.58597         2.82039
O         10.78148        15.28963        -2.45701
O          9.19733        10.77570         2.12027
O         12.29875        39.61714         1.04058
H         12.29381        39.67869         0.06131
O          4.79215         5.20205        -0.96870
H          5.22429         5.90750        -1.50489
O          5.79503        28.62348         1.93259
H          6.24840        27.77138         2.11538
O         13.49621        24.47342         1.41870
H         12.64519        24.02219         1.60693
O         18.58158        14.68262        -2.99298
H         19.38074        15.17979        -3.27081
O         11.19437        20.69068        -3.29915
H         10.34227        20.35306        -3.64954
O          3.74588        25.08473        -3.07568
H          3.41251        25.97783        -3.31462
O          7.04880        24.92278         0.86244
H          7.85174        25.10676         1.40365
O          8.69180        36.19426         2.93118
H          8.35294        35.33945         3.29745
O          0.99294        27.83164        -2.72675
H          0.84567        26.88967        -2.95933
O         13.53145        15.99408        -3.23631
H         12.64960        15.60896        -3.45162
O         11.23897         6.84569         3.12329
H         10.42854         7.33354         3.38722
O          7.41634        35.24302        -0.40893
H          7.20787        36.12323        -0.78803
O         18.62827         8.25170         2.38220
H         19.44989         7.83860         2.72459
O          5.15836        35.03329         3.23874
H          4.65780        35.72714         3.73208
O          7.49707        22.82106        -3.13032
H          7.32234        23.76662        -3.37144
O         10.02360        13.22918         1.89972
H          9.27094        13.81474         2.14618
O         11.43920        37.77655        -0.83032
H         10.77316        37.31246        -1.37989
O         11.90482        12.15241        -2.11632
H         12.74741        12.14336        -2.63404
O          6.52055        25.36088        -2.76219
H          5.66333        25.28958        -3.25694
O          3.99618        37.21033        -0.64158
H          3.15871        37.14060        -1.14167
O          7.46258        33.82879         2.98692
H          7.39084        32.87418         3.22768
O         19.79291        20.79796         1.24429
H         19.81435        19.81931         1.30990
O          9.93233        26.27258        -2.23770
H          9.89645        25.56510        -2.91491
O          8.84322        11.92067        -1.31946
H          8.01224        11.50972        -1.66486
O         17.40736        22.88570        -2.46326
H         17.38334        23.85256        -2.62991
O          7.30421        30.86451         2.56532
H          6.63656        30.14513         2.71064
O          9.77782        26.13701         1.41432
H          9.95358        26.82543         2.09062
O         17.21852        31.28029        -2.13953
H         17.35313        32.23159        -2.37620
O         14.68895        12.20765        -2.54646
H         15.41314        12.68249        -3.01120
H          1.28948         2.43986         1.16946
H         -0.88730         3.56231         0.71644
H         -0.99645         6.01853         0.40419
H         -0.95596         7.94683        -0.34785
H         -0.93202        10.34374        -0.67681
H         -1.02851        12.30291        -0.49367
H         -1.03058        14.71225        -0.74721
H         -1.00531        16.63342        -0.83186
H         -0.98698        19.05499        -0.94073
H         -0.97926        20.94659        -0.86238
H         -0.96652        23.37737        -0.93690
H         -0.84044        25.26208        -0.21571
H         -0.86688        27.70633        -0.35774
H         -0.79807        29.66204        -1.45260
H         -0.76482        32.08525        -1.04436
H         -0.63712        33.99713        -0.94977
H         -0.56190        36.40511        -0.46469
H          0.39376        38.25943         0.84495
H          3.67871         2.59744         1.67927
H          2.37287        39.66683         0.89206
H          6.13828         2.67301         1.91852
H          4.72615        39.01540         2.09415
H          8.60876         2.64736         1.97525
H          7.28356        39.28119         0.78109
H         11.09141         2.64746         2.06926
H          9.69116        39.31010         0.47339
H         13.59378         2.59428         1.81318
H         12.04506        38.13914         2.46104
H         16.07035         2.55153         1.64728
H         14.70581        39.30789         1.25101
H         18.52795         2.51887         1.45328
H         17.15567        39.39545         0.88383
H         20.67008         3.72477         1.10750
H         21.89667         5.81739         0.64495
H         21.93030         8.18944         0.05363
H         21.95871        10.10042        -0.19293
H         21.94902        12.45442        -0.74721
H         21.93486        14.34272        -0.88758
H         21.90783        16.75108        -1.08831
H         21.85563        18.68590        -1.44738
H         21.87432        21.07325        -0.93253
H         21.81476        22.79077         0.36080
H         21.85257        25.24224         0.43515
H         21.87585        27.16782         0.27915
H         21.84384        29.60018         0.32886
H         21.75923        31.47363         0.71834
H         21.77784        33.90751         0.72332
H         21.84881        35.84592         0.05517
H         21.77317        38.29975         0.34838
H         19.59818        39.47588         0.65809
