         420
 CSIRO Nanostructure Databank - Neutral Graphene Oxide Data Set
C         28.83453        27.12381        -1.52583
C         28.80219        28.54310        -1.58107
C         27.70935        29.22566        -2.17598
C         28.72424        31.37069        -1.63879
C         27.67315        30.60731        -2.19179
C         28.56843        32.87457        -1.58883
C         28.06839        33.48193        -2.87958
C         28.94850        35.66284        -2.20118
C         28.18611        34.80804        -3.10031
C         28.90639        37.05710        -2.25515
C         27.94339        37.73658        -3.09278
C         28.51277        39.88498        -2.05439
C         27.72767        39.06778        -2.98932
C         28.51205        41.40994        -2.18533
C         27.72898        42.03314        -3.26630
C         29.01258        44.08568        -3.03225
C         28.01615        43.28051        -3.70342
C         29.18676        45.45913        -3.41145
C         30.96410        27.18906        -0.34504
C         29.88549        26.47037        -0.91654
C         30.96101        28.60207        -0.38331
C         29.87224        29.29143        -1.00675
C         30.88679        31.48730        -0.42512
C         29.82090        30.72346        -1.03958
C         30.83663        32.91497        -0.40925
C         29.78701        33.61717        -1.09593
C         30.78294        35.81051        -0.53832
C         29.84021        35.00582        -1.27230
C         30.77096        37.19951        -0.58660
C         29.77520        37.86568        -1.41193
C         30.46895        40.08228        -0.41439
C         29.64851        39.24329        -1.37608
C         30.64413        41.52415        -0.85730
C         29.68081        42.15499        -1.64942
C         30.55711        44.47021        -1.10689
C         29.78972        43.53858        -2.01338
C         31.00059        45.75951        -1.78930
C         30.15728        46.24267        -2.84263
C         32.90511        24.42192         1.43179
C         31.98114        25.03277         0.67192
C         33.16532        27.27624         0.95063
C         32.10193        26.45966         0.27403
C         33.08765        28.74894         0.88845
C         32.03332        29.37760         0.21800
C         33.06641        31.57269         0.71369
C         31.98416        30.81738         0.17172
C         33.01116        33.00012         0.73794
C         31.86350        33.65122         0.22772
C         32.78982        35.92299         1.03180
C         31.69965        35.11224         0.37377
C         32.89258        37.36023         0.70969
C         31.79576        37.99853         0.07743
C         32.90308        40.17628         0.34012
C         31.77483        39.41508        -0.03667
C         32.89024        41.63759         0.21064
C         31.76551        42.26785        -0.34084
C         32.89182        44.53405         0.03298
C         31.66974        43.75076        -0.34320
C         33.02461        45.95615        -0.36828
C         32.05711        46.52180        -1.28481
C         33.29234        48.64078        -1.24190
C         32.36128        47.85050        -1.80846
C         35.32796        23.04452         2.24108
C         35.30354        24.45637         2.31945
C         33.99729        25.15632         2.13894
C         35.24631        27.41179         2.45289
C         34.02219        26.64997         2.01697
C         35.22262        28.87155         2.17369
C         34.17839        29.49289         1.43337
C         35.34583        31.66984         1.64551
C         34.19338        30.91492         1.28714
C         35.33444        33.09993         1.57199
C         34.11953        33.74501         1.26364
C         35.28149        35.96759         1.72464
C         33.99402        35.18144         1.51959
C         35.27840        37.41574         1.44487
C         34.05296        38.10451         1.06383
C         35.21932        40.28849         1.29928
C         34.04606        39.51033         0.86551
C         35.29782        41.74027         1.00682
C         34.07146        42.41338         0.58288
C         35.23061        44.60303         0.89394
C         34.08897        43.79424         0.44374
C         35.30402        46.04081         0.56190
C         34.12238        46.69499         0.05174
C         35.31382        48.93409         0.24248
C         34.00770        48.20578         0.01095
C         35.38654        50.29315         0.09468
C         37.71112        23.05919         1.77333
C         36.50419        22.35974         2.01751
C         37.73361        24.47253         1.95369
C         36.52708        25.16064         2.28588
C         37.89060        27.29052         2.48600
C         36.57377        26.61116         2.60755
C         38.04114        28.65173         2.84490
C         36.23426        29.70523         2.67244
C         37.77473        31.66178         2.27704
C         36.47503        31.01939         2.20634
C         37.81835        33.09352         1.99095
C         36.56326        33.81819         1.77994
C         37.75606        35.96000         1.53735
C         36.55234        35.22629         1.67647
C         37.75328        37.35926         1.47235
C         36.50363        38.07222         1.46001
C         37.79464        40.25844         1.40900
C         36.51940        39.53834         1.55055
C         37.75223        41.73610         1.70965
C         36.48509        42.40794         1.20611
C         37.78254        44.61535         1.15767
C         36.50892        43.88067         1.27130
C         37.76477        46.01427         0.96721
C         36.50490        46.71441         0.73249
C         37.79482        48.95258         0.78854
C         36.48980        48.19749         0.72450
C         37.81362        50.38873         0.43691
C         36.61503        51.02095         0.20891
C         39.94385        20.36541         0.40863
C         38.85782        20.98703         0.97399
C         40.08677        23.10847         1.09121
C         38.88837        22.37605         1.29482
C         40.14260        24.49777         1.41939
C         38.98082        25.18269         1.77955
C         40.23308        27.35829         1.77873
C         39.02257        26.61853         1.99532
C         40.26362        28.78031         1.95020
C         39.09252        29.48329         2.41306
C         40.26605        31.67565         2.39791
C         38.98205        30.93296         2.37245
C         40.30684        33.13103         2.10482
C         39.03211        33.78334         1.89713
C         40.23453        36.00222         1.63665
C         39.02023        35.17624         1.30360
C         40.19637        37.43729         1.25120
C         38.99905        38.10794         1.29139
C         40.23922        40.30433         1.19276
C         38.97435        39.57504         1.24519
C         40.23074        41.74762         1.21796
C         39.01713        42.46506         1.30749
C         40.24813        44.59489         1.06152
C         39.01044        43.88255         1.18418
C         40.23208        46.02545         0.97217
C         39.01135        46.71476         0.90287
C         40.24332        48.91392         1.17162
C         39.06580        48.18131         0.52669
C         40.29294        50.36310         0.71985
C         39.10962        51.07171         0.43348
C         40.38702        53.14539         0.26171
C         39.18724        52.46885         0.17992
C         42.21028        20.48045        -0.57153
C         41.12784        21.10014         0.11510
C         42.40591        23.20774         0.16837
C         41.21789        22.46676         0.48186
C         42.54651        24.57082         0.59803
C         41.49626        25.16693         1.51980
C         42.60054        27.38692         1.14959
C         41.43379        26.67625         1.42070
C         42.61506        28.80926         1.24278
C         41.47306        29.47948         1.72518
C         42.85889        31.60178         1.94985
C         41.56550        30.88164         2.16964
C         42.84263        33.15577         1.97729
C         41.51732        33.80661         1.93429
C         42.76719        36.00935         1.39960
C         41.53267        35.28735         1.77947
C         42.74265        37.39040         1.18363
C         41.46295        38.12663         0.83444
C         42.68431        40.31990         1.12444
C         41.45370        39.61373         1.11533
C         42.70916        41.73084         1.07817
C         41.47449        42.45649         1.09118
C         42.72114        44.59293         0.89075
C         41.47660        43.87859         1.02504
C         42.72868        46.01574         0.84771
C         41.49990        46.75123         0.90823
C         42.75840        48.86989         0.89368
C         41.52931        48.15514         0.93336
C         42.77534        50.30461         0.86702
C         41.54338        51.03596         0.72608
C         42.84103        53.13022         0.61870
C         41.58775        52.44689         0.53413
C         43.32983        21.20092        -0.90338
C         44.66452        23.31207        -0.82538
C         43.45868        22.57570        -0.54071
C         44.80799        24.65065        -0.35024
C         43.71831        25.27150         0.35814
C         45.00253        27.45015         0.37129
C         43.90648        26.63237         1.01555
C         44.94086        28.81478         0.33173
C         43.81604        29.55449         0.90708
C         45.20025        31.63404         1.02212
C         43.93077        30.90324         1.22220
C         45.25919        33.15746         1.20838
C         44.01704        33.88839         1.46161
C         45.20291        36.00163         0.93619
C         43.99578        35.28399         1.26325
C         45.20075        37.42262         0.93221
C         43.96369        38.10111         1.06964
C         45.26040        40.31355         1.05547
C         43.94390        39.56175         1.23743
C         45.18418        41.75495         0.79411
C         43.96147        42.44643         0.92029
C         45.18590        44.58041         0.67584
C         43.94515        43.87364         0.80843
C         45.20380        46.01512         0.69741
C         43.97381        46.72395         0.78017
C         45.22254        48.86163         0.76221
C         43.98246        48.15008         0.81142
C         45.24060        50.27833         0.91413
C         44.01344        51.00569         0.89663
C         44.00525        52.43892         0.81944
C         46.93562        23.38085        -1.70261
C         45.74240        22.71535        -1.52738
C         47.12023        24.68694        -1.18323
C         46.04467        25.32718        -0.54555
C         47.28682        27.46935        -0.75310
C         46.27677        26.69678         0.05737
C         47.16717        28.89598        -0.92681
C         46.00365        29.61361        -0.33003
C         47.46477        31.75908        -0.14867
C         46.16451        31.06672         0.03237
C         47.53635        33.15336         0.14763
C         46.40029        33.87834         0.61084
C         47.60269        36.00729         0.28047
C         46.40422        35.28728         0.61955
C         47.61847        37.42766         0.30140
C         46.42896        38.15227         0.65091
C         47.62510        40.28732         0.24770
C         46.45329        39.55759         0.64146
C         47.60091        41.69931         0.23024
C         46.40293        42.43804         0.51067
C         47.66826        44.58266         0.65341
C         46.39287        43.85987         0.54783
C         47.69857        46.03437         0.55658
C         46.44110        46.74120         0.58733
C         47.68430        48.92638         0.25065
C         46.43916        48.14382         0.59194
C         47.68695        50.26558         0.94267
C         46.52039        50.91949         1.14787
C         49.56609        24.69760        -1.71122
C         48.40591        25.37150        -1.34974
C         49.66039        27.51287        -1.49265
C         48.43709        26.80363        -1.21973
C         49.74633        28.92282        -1.25475
C         48.51484        29.69690        -1.13436
C         49.86434        31.72824        -0.67810
C         48.59007        31.08078        -0.64411
C         49.92327        33.13350        -0.47460
C         48.74766        33.86147        -0.13133
C         50.00406        35.97965        -0.32555
C         48.78625        35.28066        -0.04041
C         50.01112        37.40367        -0.34250
C         48.82101        38.13497        -0.03804
C         50.04705        40.25684        -0.38085
C         48.82940        39.56127        -0.07957
C         50.07865        41.70453        -0.38043
C         48.77358        42.46185        -0.34419
C         50.13034        44.59616        -0.02026
C         48.95284        43.81734         0.30650
C         50.15991        45.96881         0.22755
C         48.92994        46.70845         0.44614
C         50.18304        48.78886         0.21359
C         48.97189        48.14241         0.36992
C         50.76387        25.39576        -1.96771
C         52.06041        27.58758        -2.23364
C         50.82644        26.77897        -1.86577
C         52.24018        28.73924        -1.23146
C         50.98890        29.58289        -1.15404
C         52.32964        31.67113        -0.98418
C         51.06245        30.98001        -0.94646
C         52.35459        33.06515        -0.86447
C         51.16256        33.82518        -0.64559
C         52.40670        35.95292        -0.96713
C         51.19481        35.24464        -0.59991
C         52.36726        37.38330        -1.06953
C         51.21551        38.10002        -0.71224
C         52.47290        40.24674        -0.86011
C         51.22734        39.54414        -0.68775
C         52.51161        41.68443        -0.67085
C         51.26309        42.39781        -0.51783
C         52.59661        44.53643        -0.26160
C         51.28927        43.90666        -0.69276
C         52.65113        45.90500         0.07553
C         51.41188        46.68759         0.12744
C         51.40295        48.07093         0.14591
C         54.53443        27.39651        -2.22057
C         53.34117        26.79047        -2.35499
C         54.63655        28.82341        -1.92306
C         53.49186        29.53580        -1.51758
C         54.80520        31.59031        -1.42107
C         53.55383        30.92725        -1.27823
C         54.91504        33.03803        -1.12114
C         53.63257        33.80082        -0.90166
C         54.73841        35.88936        -1.93687
C         53.59037        35.24208        -1.19079
C         54.84807        37.35451        -1.57528
C         53.55261        38.12922        -1.62945
C         54.93330        40.19019        -1.11843
C         53.65498        39.54567        -1.12789
C         55.01823        41.69869        -1.05163
C         53.72386        42.36468        -0.65481
C         55.01743        44.35137         0.07741
C         53.77820        43.76728        -0.30705
C         55.05647        45.71123         0.42958
C         53.89773        46.48010         0.41110
C         55.85832        29.49973        -2.08552
C         55.93521        30.86474        -1.83557
C         56.09881        33.81367        -1.57870
C         56.03255        35.11852        -1.86699
C         56.02986        38.01411        -1.42402
C         56.08128        39.43666        -1.25621
C         56.18694        42.22908        -0.25199
C         56.19256        43.50263         0.19226
O         37.07460        29.22016         3.67921
O         35.74602        26.99790         3.74314
O         44.75785        39.96477         2.39466
O         47.56424        29.43035        -2.21101
O         34.42009        35.58601         2.85449
O         45.75171        32.19199         2.23443
O         35.59278        44.37837         2.30381
O         41.07066        31.16192         3.50858
O         33.38291        26.01687         3.16941
O         35.67404        40.00616         2.67194
O         37.06916        48.67984         2.00950
O         54.52388        33.41535         0.24420
O         31.78383        44.31353         1.01125
O         40.81769        35.88218         2.96441
O         31.57860        35.56494         1.77426
O         48.53030        43.96179         1.68527
O         33.40759        26.70369        -0.39056
O         27.69755        40.74346        -1.15376
O         45.47153        30.66989        -1.19943
O         43.22617        32.34676         3.13871
O         29.56660        44.89607        -0.12286
H         30.06260        45.05208         0.71654
O         33.13698        48.56738         1.13285
H         33.58327        48.27997         1.95777
O         47.57635        49.22556        -1.19516
H         46.74551        49.73239        -1.32081
O         29.66960        40.14134         0.81421
H         28.77757        40.47119         0.54880
O         37.69089        41.84183         3.16760
H         36.89053        41.33628         3.45115
O         52.41934        28.11926         0.07617
H         52.63129        28.82710         0.72005
O         41.45978        38.04108        -0.64985
H         40.60461        38.40608        -0.96336
O         54.34509        35.82897        -3.35014
H         53.74995        36.60549        -3.52003
O         41.96329        24.87554         2.87803
H         42.83454        25.33558         2.98404
O         39.10412        34.98122        -0.15796
H         38.32832        34.44540        -0.42827
O         51.79855        28.19755        -3.52543
H         51.62267        27.48349        -4.17221
O         53.24371        38.28627        -3.09138
H         53.87939        38.94778        -3.44349
O         51.17046        44.12897        -2.14047
H         51.07407        45.09479        -2.28106
O         46.89304        26.45004         1.39001
H         47.68412        25.88685         1.24209
O         40.01050        48.91733         2.60389
H         40.74783        49.39826         3.03334
O         48.41550        42.76744        -1.73478
H         48.59126        41.96941        -2.27606
O         55.26639        42.11870        -2.44553
H         55.24245        43.09962        -2.45962
O         44.33163        26.35350         2.39697
H         45.31252        26.21884         2.37189
O         27.51202        33.11127        -0.59167
H         27.44335        34.08120        -0.46090
O         39.24499        48.22604        -0.91762
H         40.10709        47.80659        -1.12610
H         28.01105        26.55004        -1.97421
H         26.88052        28.64286        -2.60256
H         26.80083        31.12008        -2.62002
H         27.50996        32.85613        -3.59101
H         27.74271        35.24639        -4.00607
H         27.31911        37.14702        -3.77763
H         26.92443        39.53698        -3.57219
H         26.88271        41.48106        -3.69549
H         27.42538        43.73932        -4.50948
H         28.55819        45.86289        -4.21813
H         29.88950        25.37239        -0.89605
H         30.30120        47.25835        -3.23446
H         32.78824        23.34814         1.63987
H         31.14946        24.43971         0.26513
H         33.49625        49.63894        -1.65641
H         31.82140        48.21490        -2.69275
H         34.39699        22.47510         2.36163
H         34.48576        50.85505        -0.19102
H         36.47650        21.26358         1.97730
H         36.57762        52.10183         0.01580
H         39.89907        19.29865         0.14638
H         37.94842        20.40001         1.15625
H         40.42181        54.23255         0.10141
H         38.27428        53.03286        -0.05285
H         42.13001        19.41940        -0.84811
H         42.85675        54.22424         0.50880
H         44.14160        20.69526        -1.44178
H         44.95696        52.98569         0.86215
H         47.74887        22.88936        -2.25288
H         45.64244        21.70304        -1.93904
H         48.64241        50.76160         1.16653
H         46.53411        51.93754         1.56364
H         49.56753        23.60352        -1.81002
H         50.21557        49.88366         0.12515
H         51.64922        24.81272        -2.25445
H         52.34185        48.63559         0.06154
H         55.46856        26.83715        -2.38286
H         53.30342        25.73287        -2.65501
H         56.01138        46.16432         0.73239
H         53.95145        47.53853         0.70037
H         56.75202        28.94520        -2.40472
H         56.90187        31.37222        -1.95178
H         57.07282        33.30333        -1.62300
H         56.94406        35.63071        -2.20920
H         56.98456        37.46982        -1.44459
H         57.06846        39.91708        -1.24185
H         57.08662        41.60684        -0.13982
H         57.08225        43.91758         0.68996
