         324
 CSIRO Nanostructure Databank - Neutral Graphene Oxide Data Set
C          1.82790         2.30183         2.99498
C          1.69671         3.66948         2.64718
C          2.91423         1.55106         2.59532
C          2.60527         4.30785         1.80178
C          1.47308         6.50952         2.04294
C          1.53534         7.86198         2.12294
C          2.59263         5.72717         1.58519
C          2.79013         8.56389         1.81884
C          1.63343        10.87543         2.10935
C          1.64520        12.21422         2.02710
C          2.85298        10.08034         1.84347
C          2.87274        12.95387         1.66424
C          1.52791        15.22285         1.47469
C          1.40067        16.46681         0.98850
C          2.79261        14.44998         1.39171
C          2.49535        17.22712         0.28042
C          2.81188        18.52525         1.04063
C          3.92037         2.12335         1.75663
C          3.67395         3.47387         1.20458
C          5.08066         1.45256         1.42008
C          4.79809         4.15127         0.44340
C          3.69010         6.41634         0.97341
C          3.81653         7.81588         1.06240
C          4.72764         5.64148         0.25155
C          4.97023         8.53121         0.56316
C          3.97611        10.75059         1.14155
C          3.99956        12.17505         1.09073
C          5.03301         9.97087         0.63777
C          5.08691        12.85929         0.46430
C          3.86769        15.04432         0.57556
C          3.73990        16.36819         0.10668
C          5.03186        14.30472         0.26754
C          4.84170        16.95127        -0.51341
C          3.88407        19.33962         0.88497
C          4.99663        19.05694        -0.01597
C          6.18449         2.10360         0.76605
C          6.10387         3.47271         0.38432
C          7.40477         1.41239         0.62705
C          7.27043         4.17634        -0.05302
C          5.97938         6.35546        -0.19515
C          6.06516         7.81944         0.00946
C          7.21445         5.55454        -0.35174
C          7.19966         8.51820        -0.52599
C          6.32379        10.68645         0.30848
C          6.14017        12.12722        -0.10816
C          7.27335         9.89362        -0.53852
C          7.23504        12.82743        -0.77653
C          6.18180        14.98990        -0.21475
C          6.13479        16.38617        -0.46695
C          7.38187        14.28419        -0.55297
C          7.34305        17.14529        -0.66570
C          6.32060        19.34268         0.13137
C          7.39097        18.57589        -0.52190
C          8.56639         2.05930         0.14858
C          8.51655         3.44556        -0.19400
C          9.79510         1.34436         0.03585
C          9.71393         4.08699        -0.62408
C          8.40074         6.23932        -0.86810
C          8.36123         7.74597        -1.06096
C          9.70205         5.52522        -0.83284
C          9.65770         8.47628        -1.00714
C          8.39388        10.52450        -1.35649
C          8.45338        12.04708        -1.29695
C          9.70759         9.84704        -1.03242
C          9.73238        12.74747        -1.26910
C          8.52959        14.97414        -0.90328
C          8.56185        16.42058        -0.83582
C          9.70835        14.24462        -1.53076
C          9.80546        17.11257        -0.94201
C          8.59799        19.22374        -0.81021
C          9.79883        18.52969        -1.06296
C         10.96035         1.97416        -0.37279
C         10.92659         3.35675        -0.69233
C         12.21773         1.15663        -0.59741
C         12.16784         4.01886        -1.13993
C         10.87433         6.23300        -0.92841
C         10.86535         7.70037        -0.71430
C         12.13460         5.53583        -1.23269
C         12.15064         8.45932        -0.59850
C         10.95391        10.59127        -0.99622
C         10.94661        12.03559        -1.15258
C         12.17292         9.91109        -0.86262
C         12.19904        12.72599        -1.20623
C         11.00920        14.92233        -1.18536
C         11.03338        16.31200        -0.91933
C         12.20986        14.17408        -1.18494
C         12.26593        16.88506        -0.53466
C         10.96408        19.32174        -1.48990
C         12.21545        19.08914        -1.01198
C         13.50294         1.95866        -0.66651
C         13.48005         3.34876        -0.93191
C         14.72106         1.28551        -0.56111
C         14.70392         4.05929        -1.02447
C         13.43432         6.28864        -1.19851
C         13.43097         7.68619        -0.65196
C         14.73753         5.53745        -1.21640
C         14.71104         8.43331        -0.65710
C         13.43641        10.59527        -0.93589
C         13.43734        12.01158        -1.13102
C         14.68557         9.91062        -0.81962
C         14.69100        12.69745        -1.20083
C         13.44772        14.86285        -1.12507
C         13.49376        16.21651        -0.74512
C         14.69807        14.15516        -1.42575
C         14.76796        16.90187        -0.63403
C         13.48500        19.61872        -1.49030
C         14.68032        19.12560        -1.06795
C         15.95943         1.96160        -0.70334
C         15.92662         3.37252        -0.89798
C         17.20181         1.23628        -0.65407
C         17.20200         4.10361        -1.07089
C         15.98898         6.29226        -0.89891
C         15.96420         7.66420        -0.85340
C         17.24851         5.57249        -0.81522
C         17.18208         8.42801        -0.54945
C         15.89747        10.61278        -0.89008
C         15.90596        12.02368        -1.06266
C         17.18721         9.87074        -0.93680
C         17.17499        12.78945        -0.87510
C         15.99460        14.93847        -1.43616
C         15.95784        16.37809        -1.08410
C         17.25452        14.23210        -1.14822
C         17.21801        17.11609        -1.13263
C         16.03945        19.45524        -1.61752
C         17.20733        18.58491        -1.14461
C         18.44857         1.85500        -0.77316
C         18.47567         3.32069        -0.99111
C         19.69350         1.17395        -0.72882
C         19.73730         4.03332        -0.75081
C         18.43946         6.21767        -0.58370
C         18.46651         7.68393        -0.36697
C         19.74163         5.47961        -0.31372
C         19.77051         8.43978        -0.40958
C         18.49406        10.59156        -0.92867
C         18.48052        12.06812        -0.70824
C         19.76329         9.89272        -0.63778
C         19.75664        12.80574        -0.86046
C         18.45674        14.93781        -1.03393
C         18.42019        16.39947        -1.12488
C         19.72446        14.23674        -0.93657
C         19.70889        17.12025        -1.12779
C         18.35964        19.26687        -0.87821
C         19.67441        18.61652        -0.92001
C         20.92374         1.86764        -0.86221
C         20.91138         3.32322        -0.88341
C         22.18886         1.25199        -0.85552
C         22.14545         4.04932        -1.07821
C         20.93396         6.21972        -0.89999
C         21.05936         7.68759        -0.67719
C         21.94452         5.44487        -1.39534
C         22.29067         8.51590        -0.87360
C         20.95248        10.61557        -0.68132
C         20.94152        12.05891        -0.82034
C         22.22613         9.89886        -0.66375
C         22.26012        12.75439        -1.01499
C         20.98467        14.95425        -0.91679
C         20.97973        16.40246        -0.85038
C         22.19001        14.24884        -0.80385
C         22.13018        17.14043        -0.57744
C         20.84112        19.36067        -0.29890
C         22.09863        18.53220        -0.16971
C         23.41282         1.98972        -0.84323
C         23.40721         3.44434        -0.98208
C         24.62929         1.30615        -0.70697
C         24.67627         4.16917        -0.83349
C         23.79527         6.49844        -1.18889
C         23.59006         7.87961        -0.82154
C         24.72085         5.63198        -0.65171
C         24.68974         8.56658        -0.32078
C         23.43053        10.66677        -0.36416
C         23.38650        12.04394        -0.30080
C         24.67343         9.96619        -0.07906
C         24.53393        12.80391         0.24568
C         23.47261        14.94106        -0.79747
C         23.45682        16.50170        -0.62444
C         24.61948        14.25736        -0.10845
C         24.59789        17.14056         0.01758
C         23.20180        19.12466         0.39085
C         24.46744        18.44118         0.55143
C         25.87688         1.99071        -0.61604
C         25.85100         3.44286        -0.62966
C         27.07423         1.29255        -0.41035
C         27.10731         4.10694        -0.18539
C         25.82959         6.29285         0.08827
C         25.85944         7.78830         0.11100
C         27.12521         5.55603         0.19466
C         27.14827         8.52939         0.06965
C         25.85194        10.63265         0.31105
C         25.77094        12.06022         0.78060
C         27.10646         9.96742         0.38679
C         27.09068        12.79769         0.60385
C         25.94866        14.93906        -0.04556
C         25.90536        16.47615         0.06346
C         27.11269        14.22281         0.49811
C         27.01471        17.11087         0.77903
C         25.58555        19.09895         1.10435
C         26.85511        18.46127         1.23077
C         28.38981         1.93874        -0.48622
C         28.41807         3.46385        -0.47833
C         29.59430         1.25104         0.03067
C         29.66388         4.18844        -0.05864
C         28.39610         6.29619         0.25931
C         28.42831         7.76437         0.20539
C         29.59945         5.60512         0.37508
C         29.61071         8.47722         0.70381
C         28.32282        10.64366         0.62216
C         28.29398        12.08333         0.68222
C         29.56729         9.89627         0.81843
C         29.55674        12.83699         0.76682
C         28.27325        14.96377         0.81852
C         28.20364        16.39588         1.02530
C         29.49611        14.27451         1.09272
C         29.32824        17.07223         1.59641
C         27.96899        19.12304         1.78313
C         29.21080        18.46177         1.93143
C         30.70315         1.89637         0.45356
C         30.87718         3.36510         0.37587
C         31.86256         4.07198         1.20252
C         30.77739         6.26583         0.84745
C         30.76091         7.71243         1.04684
C         31.85929         5.44146         1.30384
C         31.89008         8.42267         1.51991
C         30.75189        10.56927         1.23197
C         30.83127        12.05175         1.14946
C         31.88049         9.81130         1.59279
C         31.83099        12.81375         1.89616
C         30.62325        14.94436         1.59015
C         30.55197        16.37811         1.84537
C         31.76175        14.17104         2.01597
C         31.64777        17.10516         2.34361
C         30.34300        19.14588         2.45429
C         31.54042        18.47414         2.63466
O         14.73816        18.17646        -0.03459
O         27.93582         8.24273        -1.13773
O         19.91684        18.06380        -2.25707
O         14.15687         6.10279        -2.45178
O          7.44876        12.57825        -2.24261
O         17.68499         8.14472         0.80176
O          3.27613        13.94204         2.68544
O          3.70752         3.47415        -0.26702
O          8.14196         6.88518        -2.20189
O         30.76530         3.93787        -0.97181
O         17.90454         3.72837        -2.31516
O         12.02301         4.69721        -2.42694
O         30.58326        12.51071        -0.22024
O         17.89665        10.13657        -2.20985
O         12.29188        18.15102         0.04990
O         15.33840        14.55987        -2.70338
O         11.40740         8.07679         0.61886
O         14.13136         7.89796         0.61641
O         23.75966        15.81973        -1.89303
O         26.27760        15.77017        -1.17856
O         17.73220        12.46760         0.48413
O         20.60698         8.01109         0.72108
O          4.66864        18.21297        -1.10863
O         22.93394         6.03768        -2.18645
O         25.54186         7.01939         1.33398
O         24.14526        13.84732         1.23191
O          3.32176         9.30402         3.00300
O         28.53729         2.75758        -1.72388
O          4.88992         6.01097        -1.15213
O         27.05532         4.49669         1.23704
O         25.59380        11.95948         2.22806
H         25.10037        12.76548         2.50812
O         19.86814         5.43978         1.13987
H         20.04382         6.37063         1.43030
O         22.60652        12.61303        -2.45355
H         21.96070        13.14205        -2.96965
O          7.03709        10.81041         1.62412
H          6.37166        11.10049         2.28668
O         15.97256        19.36633        -3.04628
H         16.88475        19.38238        -3.40292
O          8.13988        10.17015        -2.74287
H          7.47892        10.81380        -3.08660
O          9.52084        14.38110        -2.98091
H          8.69633        13.88319        -3.19507
O         12.32692         0.12152         0.38662
H         12.46616         0.53968         1.26061
O         20.44618        19.86590         0.98775
H         20.37334        19.11588         1.61270
O          1.98826        17.59699        -1.02263
H          2.72734        18.04747        -1.49371
H          1.07011         1.85362         3.65257
H          0.87090         4.23460         3.10000
H          3.03179         0.51320         2.93822
H          0.54349         5.99906         2.32831
H          0.67584         8.42506         2.50957
H          0.72018        10.36013         2.43721
H          0.74320        12.78574         2.28678
H          0.67840        14.76569         2.00367
H          0.43664        16.98845         1.09273
H          2.06000        18.83041         1.78713
H          5.22541         0.41856         1.76769
H          3.97770        20.21869         1.54335
H          7.46242         0.35537         0.92551
H          6.63366        20.09760         0.86931
H          9.81489         0.27068         0.27257
H          8.62812        20.32270        -0.77937
H         12.09605         0.63134        -1.58600
H         10.78902        20.12644        -2.21920
H         14.71437         0.19937        -0.38801
H         13.46812        20.35450        -2.30572
H         17.15410         0.14409        -0.52651
H         16.29083        20.52416        -1.33163
H         19.70352         0.08255        -0.58766
H         18.33898        20.36325        -0.77101
H         22.24984         0.15393        -0.80533
H         21.06250        20.26065        -0.93116
H         24.62394         0.20710        -0.65518
H         23.13076        20.16803         0.73136
H         27.03541         0.20671        -0.23478
H         25.47836        20.13911         1.44455
H         29.52868         0.15916         0.15824
H         27.87399        20.17122         2.10213
H         31.52445         1.31620         0.90221
H         32.63660         3.48664         1.72033
H         32.67893         5.91715         1.86139
H         32.81009         7.88727         1.78955
H         32.79824        10.32534         1.91053
H         32.63822        12.27341         2.41125
H         32.56667        14.67982         2.56392
H         32.61261        16.60939         2.51320
H         30.25687        20.21193         2.70784
H         32.41675        19.01051         3.02460
