         344
 CSIRO Nanostructure Databank - Neutral Graphene Oxide Data Set
C          1.61973         2.40336         2.47561
C          1.58316         3.80217         2.24665
C          2.77202         1.68003         2.27533
C          2.70065         4.48983         1.78644
C          1.53381         6.70818         1.80589
C          1.49619         8.05981         1.53213
C          2.70278         5.93304         1.56604
C          2.61933         8.72880         0.98562
C          1.49064        10.96806         0.98547
C          1.44991        12.32495         0.63397
C          2.57306        10.12227         0.60756
C          2.37344        12.87478        -0.24002
C          1.12422        15.07020        -0.22517
C          1.18358        16.31991         0.26367
C          2.32065        14.29829        -0.73758
C          2.45625        17.07223         0.32631
C          2.58318        18.30835         1.12795
C          3.96423         2.32391         1.81818
C          3.92142         3.75250         1.54414
C          5.13581         1.59250         1.61174
C          5.04753         4.39815         1.04698
C          3.85776         6.58334         1.08465
C          3.81961         7.98540         0.77058
C          5.05568         5.81344         0.76958
C          4.96202         8.63241         0.23007
C          3.65957        10.67835        -0.10487
C          3.51248        12.03511        -0.75624
C          4.87925         9.96078        -0.25253
C          4.82478        12.79250        -0.75798
C          3.63653        14.88072        -0.30199
C          3.71610        16.29917         0.04503
C          4.85043        14.15261        -0.49136
C          5.00722        16.77686         0.66990
C          3.79017        18.89414         1.31817
C          5.03173        18.27359         0.87717
C          6.34662         2.20864         1.19177
C          6.38726         3.71545         1.07320
C          7.52260         1.49797         1.03987
C          7.32574         4.18485        -0.02531
C          6.17399         6.42518         0.21984
C          6.29764         7.92525         0.26873
C          7.22579         5.63036        -0.53484
C          7.25217         8.45351        -0.80090
C          6.08009        10.62788        -0.73693
C          6.01458        12.04195        -1.26410
C          7.29694         9.96692        -0.78747
C          7.31355        12.79432        -1.14636
C          6.12951        14.86578        -0.50132
C          6.20534        16.21552        -0.06240
C          7.29707        14.18376        -0.94157
C          7.40077        16.94864        -0.10754
C          6.20259        18.96361         0.78631
C          7.43332        18.34210         0.31972
C          8.74158         2.12068         0.57798
C          8.61488         3.44759        -0.08977
C          9.93527         1.46257         0.54999
C          9.84399         4.17077        -0.48698
C          8.58174         6.33317        -0.63438
C          8.59338         7.75409        -0.73351
C          9.78831         5.61924        -0.72433
C          9.79239         8.46323        -0.83388
C          8.52244        10.67044        -1.02628
C          8.53260        12.05709        -1.21986
C          9.79951         9.96196        -0.62762
C          9.81284        12.73630        -1.67560
C          8.54141        14.96564        -1.11005
C          8.61336        16.33857        -0.57554
C          9.82773        14.24971        -1.45027
C          9.82943        17.01370        -0.57576
C          8.58745        19.06586         0.20591
C          9.85409        18.51453        -0.38720
C         11.21601         2.15053         0.17743
C         11.02798         3.50052        -0.48048
C         12.21541         1.30419        -0.62610
C         12.24701         4.12445        -1.10843
C         11.02619         6.33122        -0.87073
C         11.03630         7.75989        -0.89429
C         12.26960         5.62760        -0.96898
C         12.28082         8.46396        -1.00114
C         11.07503        10.65192        -1.05084
C         11.08069        12.04336        -1.23393
C         12.29110         9.91907        -1.04892
C         12.30300        12.75868        -1.26792
C         11.09223        14.94069        -1.13272
C         11.07472        16.31442        -0.80137
C         12.32417        14.22215        -1.22152
C         12.32021        17.00392        -0.59684
C         11.07939        18.98654         0.40749
C         12.34758        18.34653        -0.10948
C         13.54528         2.03472        -0.61435
C         13.51556         3.42334        -0.69627
C         14.76422         1.33398        -0.49478
C         14.74849         4.23584        -0.46808
C         13.47284         6.31104        -1.07154
C         13.50197         7.74346        -1.08590
C         14.74000         5.52091        -1.32281
C         14.76475         8.42373        -1.16606
C         13.51006        10.62133        -1.17685
C         13.50975        12.02341        -1.21090
C         14.80147         9.89508        -1.46959
C         14.80783        12.72753        -1.28801
C         13.53436        14.93405        -1.16967
C         13.55553        16.33794        -0.87284
C         14.81685        14.22040        -1.29116
C         14.78356        17.04910        -0.77989
C         13.54390        19.02448        -0.01144
C         14.78157        18.40373        -0.36444
C         16.01170         2.02297        -0.61337
C         16.01332         3.44474        -0.67720
C         17.24476         1.33043        -0.69796
C         17.21513         4.14545        -0.86089
C         16.00995         6.29808        -1.06515
C         15.98753         7.72769        -1.07687
C         17.20815         5.60650        -0.92624
C         17.23376         8.43816        -0.87041
C         16.04173        10.57741        -0.92909
C         15.97041        12.04292        -0.60092
C         17.21605         9.89430        -0.77431
C         17.28492        12.76908        -0.74106
C         16.08674        14.91300        -0.96750
C         16.08744        16.40440        -1.20418
C         17.26066        14.21544        -0.84638
C         17.31271        17.07899        -0.63733
C         15.99766        19.12058        -0.20377
C         17.25364        18.47504        -0.28148
C         18.45722         2.02489        -0.85633
C         18.43322         3.44401        -0.94654
C         19.72506         1.33013        -0.81600
C         19.67790         4.20312        -1.15320
C         18.44882         6.31595        -0.77182
C         18.41642         7.73905        -0.65193
C         19.69125         5.64128        -0.81542
C         19.63394         8.41560        -0.07851
C         18.47385        10.60836        -0.51020
C         18.46908        12.07275        -0.59294
C         19.63240         9.91384        -0.27299
C         19.73486        12.79240        -0.47117
C         18.56637        14.95797        -1.06328
C         18.50834        16.38791        -0.57320
C         19.77336        14.20384        -0.57151
C         19.72166        17.06122        -0.21635
C         18.44888        19.15649         0.01890
C         19.69102        18.47898         0.03350
C         20.93608         1.98264        -0.88078
C         20.98215         3.43735        -1.16180
C         22.16334         1.31120        -0.53687
C         22.21652         4.19940        -0.88515
C         20.93200         6.33392        -0.67850
C         20.95002         7.73157        -0.41625
C         22.17697         5.57211        -0.76209
C         22.15495         8.48038        -0.30789
C         20.87414        10.62670         0.19023
C         20.91764        12.08467        -0.18363
C         22.15782         9.88572        -0.11585
C         22.14679        12.77166        -0.08290
C         20.95844        14.90762        -0.26636
C         20.94732        16.35290        -0.13047
C         22.16760        14.19373        -0.05307
C         22.15130        17.04300         0.16762
C         20.89988        19.16425         0.28084
C         22.13184        18.47752         0.32916
C         23.36443         1.96850        -0.41699
C         23.52129         3.39804        -0.93910
C         24.52293         1.29704         0.13130
C         24.56551         4.15496        -0.14043
C         23.45030         6.34324        -0.74690
C         23.44494         7.80695        -0.49506
C         24.73492         5.60144        -0.40730
C         24.63011         8.47736        -0.39272
C         23.36607        10.62386        -0.05960
C         23.37731        12.02877        -0.01055
C         24.68640         9.90191         0.09275
C         24.62835        12.75160         0.15455
C         23.39776        14.89488         0.22441
C         23.38249        16.33494         0.31823
C         24.59679        14.18544         0.38517
C         24.58462        17.04188         0.56400
C         23.34590        19.17010         0.53720
C         24.57486        18.48347         0.63140
C         25.51198         2.04851         0.74747
C         25.24622         3.47347         0.81555
C         26.82562         1.57796         1.12543
C         27.03905         4.62228         1.28774
C         25.95102         6.40194        -0.04880
C         25.96021         7.80005        -0.67531
C         27.00908         5.94598         0.69685
C         27.18311         8.62275        -0.32756
C         25.83589        10.69846        -0.55157
C         25.83496        12.08517         0.05438
C         27.16918         9.99478        -0.42369
C         27.06243        12.68307         0.67894
C         25.83689        14.88696         0.64343
C         25.82011        16.33942         0.74585
C         27.03342        14.18600         0.70281
C         27.00629        17.05744         0.95500
C         25.79479        19.18393         0.77553
C         27.02181        18.49699         0.90484
C         27.99841         2.32035         1.27892
C         28.12872         3.77648         1.21459
C         29.25213         1.56761         1.23600
C         29.43130         4.41912         0.99639
C         28.30974         6.68790         0.89500
C         28.38859         7.86958        -0.02911
C         29.52897         5.76044         0.75094
C         29.60627         8.24585        -0.49537
C         28.37324        10.82370        -0.35522
C         28.36603        12.12424         0.16367
C         29.63502        10.31710        -0.77460
C         29.59666        12.82937         0.34503
C         28.28716        14.83681         1.08621
C         28.26387        16.36067         1.24474
C         29.58558        14.18942         0.79932
C         29.53728        17.08115         1.13308
C         28.25264        19.18672         1.00840
C         29.50063        18.50603         1.07424
C         30.47126         2.14514         1.17188
C         30.65928         3.62437         1.38902
C         31.93007         4.20487         0.82225
C         30.87295         6.41927         0.65444
C         30.90872         7.81522         0.03895
C         32.04764         5.52033         0.58144
C         32.08640         8.62492        -0.40665
C         30.87091        10.83560        -0.38532
C         30.85781        12.16977         0.13624
C         32.06002         9.97879        -0.53642
C         32.05013        12.88506         0.43631
C         30.78008        14.91336         0.95820
C         30.76392        16.37517         1.13485
C         32.01269        14.21148         0.80274
C         31.95757        17.12966         1.15904
C         30.72706        19.21993         1.09263
C         31.93012        18.52929         1.15616
O         25.85868         4.17193         1.86331
O         20.35159         3.85482        -2.42189
O         24.33844         5.88605        -1.82467
O          7.55734         3.28725        -1.14253
O          3.13767        17.17567        -0.99016
O         29.65089         9.15611        -1.56884
O         15.02143        13.41850        -2.54474
O          9.05938        14.92808        -2.50572
O         28.21605        15.46486         2.41853
O         30.93179         7.61380         1.51409
O         26.09317         7.73911        -2.13100
H         25.43018         7.08078        -2.45995
O         19.50277         8.21363         1.39904
H         18.56445         8.38587         1.63148
O         15.60887        12.11655         0.82763
H         16.35270        11.73656         1.34194
O          6.65173         8.12772        -2.07799
H          7.27292         8.38331        -2.79037
O         16.20140        16.55161        -2.67159
H         15.49194        16.00461        -3.07535
O         12.14062         3.86946        -2.56438
H         11.90156         2.91048        -2.65657
O         14.94229         9.99042        -2.93737
H         15.69900         9.42449        -3.20155
O         18.70587        15.04412        -2.52080
H         17.93258        15.56914        -2.84635
O          6.71222         5.54713        -1.89249
H          7.01165         4.67708        -2.24986
O         10.01167        19.11723        -1.71467
H          9.29982        18.76281        -2.28862
O          2.23897        14.29170        -2.21351
H          2.44770        15.20470        -2.51139
O         11.72419         1.16569        -1.96981
H         12.33876         0.58456        -2.46317
O         25.54753        10.83075        -1.96985
H         25.71884         9.95171        -2.38045
O          9.80758        12.53414        -3.12146
H          9.26186        13.26281        -3.50092
O          5.02019        16.17422         2.00582
H          5.85720        16.43640         2.44362
O         23.90264         3.26698        -2.32686
H         24.02692         4.18166        -2.67286
O         20.78880        10.61642         1.66876
H         20.50396         9.70039         1.91809
O         24.97247         9.82738         1.51783
H         24.15989         9.53582         1.98113
O          9.80744        10.12083         0.84802
H         10.46787         9.49154         1.20885
O         11.15285        20.40822         0.34490
H         11.00939        20.64927        -0.59657
O         28.33867         7.13652         2.27471
H         29.23414         7.52734         2.42331
O         26.99145        12.29356         2.10494
H         27.53574        12.93292         2.61418
O          7.03262         4.20039         2.30769
H          6.47539         3.91302         3.06206
O         30.78032         3.78898         2.84398
H         29.92464         3.52013         3.24083
O          5.82253        11.87497        -2.72440
H          4.87655        11.59460        -2.84052
O          3.20458        11.75966        -2.17594
H          2.84906        12.61244        -2.54192
O          6.91397         8.23897         1.56106
H          6.30826         7.92664         2.26577
O         14.72262         4.68739         0.93071
H         14.58130         3.89332         1.48917
O         14.74244         5.13835        -2.72037
H         13.86607         4.72493        -2.92075
O         11.90230         2.42232         1.44817
H         11.28048         2.91984         2.02045
H          0.70957         1.90001         2.83107
H          0.64279         4.33154         2.44900
H          2.79412         0.59828         2.47045
H          0.62821         6.22745         2.19841
H          0.56244         8.60957         1.71219
H          0.67077        10.56565         1.59482
H          0.61613        12.93764         1.00791
H          0.14389        14.57764        -0.31446
H          0.26834        16.82122         0.61662
H          1.66544        18.77939         1.51069
H          5.12207         0.50253         1.76336
H          3.85382        19.86963         1.82463
H          7.54243         0.42245         1.27412
H          6.22439        20.04248         1.00567
H         10.01079         0.44888         0.97437
H          8.59529        20.12984         0.48826
H         12.32945         0.28523        -0.16441
H         10.95402        18.69949         1.48733
H         14.75699         0.23759        -0.40446
H         13.54686        20.05681         0.36801
H         17.25197         0.23188        -0.63926
H         15.95606        20.17890         0.09339
H         19.71098         0.24652        -0.62167
H         18.41656        20.23154         0.24976
H         22.09680         0.25618        -0.22600
H         20.88207        20.25308         0.43619
H         24.58602         0.19919         0.08648
H         23.33231        20.26673         0.62299
H         26.95780         0.48347         1.08438
H         25.78773        20.28390         0.78042
H         29.17191         0.47106         1.16701
H         28.24964        20.28664         0.99421
H         31.37055         1.51378         1.10310
H         32.80528         3.54392         0.72565
H         33.00858         5.94839         0.25691
H         33.05752         8.11187        -0.49346
H         33.02094        10.48478        -0.72779
H         33.02049        12.38155         0.32467
H         32.96365        14.73333         0.97259
H         32.93393        16.62815         1.17693
H         30.71463        20.31854         1.06071
H         32.87811        19.08489         1.18167
