         294
 CSIRO Nanostructure Databank - Neutral Graphene Oxide Data Set
C          1.47961         2.05015         0.31613
C          1.30357         3.35350        -0.00969
C          2.66107         1.31760        -0.05285
C          2.24125         4.03666        -0.97382
C          1.06455         6.28234        -0.93673
C          1.00278         7.67058        -0.99613
C          2.25798         5.54725        -0.81231
C          2.25028         8.52800        -1.03280
C          0.99079        10.66394        -0.63238
C          0.94654        12.07807        -0.36545
C          2.13915         9.95422        -0.49750
C          2.09911        12.81420        -0.20654
C          2.75701        15.39772         3.01630
C          2.62810        16.75749         2.79966
C          3.49790        14.59101         2.11004
C          3.35242        17.38248         1.75436
C          3.33237        18.80124         1.57306
C          3.74772         1.95105        -0.62057
C          3.63721         3.39070        -0.98704
C          5.03068         1.30364        -0.68232
C          4.91799         4.19291        -0.91849
C          3.54152         6.32809        -0.91950
C          3.32232         7.71915        -0.26464
C          4.82856         5.62691        -0.52217
C          4.64397         8.44966        -0.12887
C          3.34804        10.66655         0.10126
C          3.42242        12.18061        -0.16563
C          4.66365         9.93820        -0.10277
C          4.62691        12.85075        -0.15448
C          4.11874        15.15201         0.98853
C          4.15698        16.57910         0.88861
C          4.73311        14.38312        -0.18641
C          5.07454        17.22926         0.00469
C          4.18995        19.41149         0.69447
C          5.16970        18.64109        -0.01895
C          6.21679         2.02057        -0.64202
C          6.18271         3.46982        -0.62945
C          7.51630         1.37832        -0.58812
C          7.32089         4.18387        -0.36694
C          5.94206         6.30679        -0.13086
C          5.74004         7.66108         0.57482
C          7.29285         5.68753        -0.51780
C          6.92149         8.57298         1.00970
C          5.92615        10.66138         0.21461
C          5.90924        12.08111        -0.21879
C          7.09303         9.97289         0.49196
C          7.23325        12.75562        -0.33098
C          6.13476        14.95455        -0.36035
C          6.11902        16.41896        -0.64062
C          7.27978        14.24713        -0.43485
C          7.42289        17.11753        -0.97771
C          6.32365        19.29641        -0.54515
C          7.49092        18.58731        -0.85667
C          8.66191         2.05812        -0.26411
C          8.53953         3.48791         0.02693
C         10.02806         1.38880        -0.50350
C          9.40702         4.20933         0.80798
C          8.47553         6.37861         0.07698
C          8.70554         7.71936        -0.32553
C          9.46718         5.68182         0.95155
C          9.73895         8.44830         0.39424
C          8.41683        10.58323         0.39678
C          8.43899        12.11073         0.35087
C          9.62857         9.86871         0.47080
C          9.75504        12.64902        -0.30833
C          8.57343        14.84315        -0.97909
C          8.67986        16.35077        -0.92868
C          9.79698        14.16780        -0.37349
C          9.88382        16.99440        -1.00399
C          8.74427        19.20410        -1.03824
C          9.94333        18.45107        -1.11686
C         11.16543         1.65511         0.54151
C         11.35637         3.12413         0.79376
C         12.51445         1.06779         0.22070
C         12.27755         3.96460         0.27361
C         10.88355         6.21022         0.36740
C         10.96181         7.67701         0.90206
C         12.26036         5.47444         0.60591
C         12.25108         8.42534         0.59682
C         10.98808        10.54002         0.23502
C         10.97603        12.06696         0.44600
C         12.08606         9.87719         1.09093
C         12.33364        12.68441         0.12822
C         11.11707        14.83759        -0.51907
C         11.17398        16.21454        -1.17491
C         12.41302        14.02442        -0.58519
C         12.42160        16.98485        -0.78559
C         11.18243        19.10011        -1.22616
C         12.42780        18.43855        -0.96687
C         13.61212         1.84430        -0.00673
C         13.48247         3.32272        -0.40343
C         14.92500         1.23845         0.09424
C         14.74085         4.13487        -0.14738
C         13.36939         6.24745        -0.18941
C         13.39748         7.78947         0.11883
C         14.70750         5.49596        -0.07924
C         14.59872         8.49902        -0.23859
C         13.35871        10.71347         1.24917
C         13.44911        12.07034         0.61264
C         14.68621         9.86884        -0.71195
C         14.83811        12.70312         0.58507
C         13.54149        14.89091        -0.02215
C         13.57172        16.32968        -0.42660
C         14.75491        14.22696         0.54245
C         14.81866        17.05910        -0.22893
C         13.57333        19.17307        -0.72968
C         14.76623        18.57250        -0.03500
C         16.08681         1.95789         0.01799
C         16.02984         3.38052        -0.52184
C         17.35665         1.34531         0.35921
C         17.20904         4.19755         0.00724
C         15.91392         6.28249        -0.46890
C         15.86611         7.77074        -0.46683
C         17.29180         5.60775        -0.53879
C         17.15745         8.55788        -0.45565
C         15.83855        10.64065        -0.57764
C         15.78020        12.12977        -0.50101
C         17.08019        10.01202        -0.00772
C         17.04827        12.88060        -0.72076
C         16.06693        14.97458         0.50939
C         15.98355        16.36812        -0.07190
C         17.30283        14.11735         0.11527
C         17.12286        16.75344         0.83911
C         16.07967        19.26371        -0.35709
C         17.22585        19.02726         0.36620
C         18.50234         2.06368         0.59286
C         18.43615         3.54570         0.54314
C         19.75297         1.47809         1.05890
C         19.71682         4.34167         0.78740
C         18.39296         6.42584         0.21081
C         18.47450         7.86087        -0.26389
C         19.76544         5.72931         0.09758
C         19.67561         8.61309         0.13941
C         18.36657        10.70454        -0.48329
C         18.34007        12.11979        -0.97383
C         19.63647        10.12984         0.12991
C         19.64687        12.91808        -1.22518
C         18.36362        15.03217        -0.55680
C         18.43378        16.27402         0.29401
C         19.69389        14.31556        -0.62315
C         19.61008        16.87773         0.51030
C         18.49176        19.66266         0.11659
C         19.72601        19.12292         0.51917
C         20.90895         2.17936         1.13303
C         21.01292         3.55082         0.49813
C         22.15711         4.42642         0.97047
C         20.91484         6.54645         0.66323
C         20.85213         7.97111         0.55472
C         22.08466         5.79949         1.00626
C         22.04241         8.81560         0.73632
C         20.93518        10.70928        -0.40561
C         20.93718        12.11913        -0.95516
C         22.11513        10.07415         0.24833
C         22.17233        12.93080        -0.85401
C         20.87644        14.97677        -0.44504
C         20.84510        16.49956        -0.27245
C         22.13630        14.26155        -0.62011
C         22.07401        17.21831         0.24365
C         21.02101        19.48771         0.13252
C         22.12869        18.58336         0.31892
O         13.73222        14.74619         1.43448
O         18.29201        10.99720        -1.90393
O         17.99410         8.23960        -1.59783
O         15.98118        12.93679        -1.71051
O         10.35800         3.62826         1.65650
O         15.68139         6.99802        -1.74982
O          7.54816         8.21004         1.99943
O         16.56665        15.68997         1.76405
O         14.21306        10.29665         2.02638
O         17.15277        18.05152         1.40649
O          6.47673        16.69118        -2.04162
O         15.97760         3.34360        -1.92349
O          4.33610         3.79870        -2.22188
O          4.92550         9.18238        -1.34627
O          6.66551        12.16823        -1.52924
O         21.05569        10.94547        -1.83147
O          7.87956         8.31427        -1.11770
O         10.41912        14.82944         0.76808
O         19.67881        17.98133         1.35916
O         17.35096         4.05888         1.44265
O          8.29410        12.58548         1.70811
H          9.05571        12.23119         2.23176
O         19.62887        10.54263         1.52690
H         18.73438        10.30899         1.89184
O         11.58894         9.90875         2.44381
H         12.30797         9.60096         3.03577
O          8.57141        14.48860        -2.39858
H          7.81018        14.96121        -2.80709
O          9.76586        12.19478        -1.67394
H          9.11986        12.73676        -2.19329
O         12.71392        13.72138        -1.96490
H         12.34790        14.44542        -2.53131
O         18.01254         6.58678         1.58606
H         18.19384         5.73887         2.06623
O         10.59856         6.16951        -1.03287
H         11.41960         6.27764        -1.57360
O          3.74765         6.46997        -2.36500
H          4.04116         5.58371        -2.69965
O          9.19795         5.95433         2.33387
H          9.68054         5.29111         2.87051
O         17.02302        10.00093         1.44554
H         16.35780        10.67564         1.74575
O          3.58948        13.25443         2.35364
H          3.14455        13.03665         3.19566
O         15.51814        12.39150         1.82290
H         14.96068        12.70638         2.56591
O          3.16003        10.58586         1.56082
H          2.21964        10.79680         1.74275
O         20.13861         5.62217        -1.29672
H         19.31455         5.56530        -1.85537
O         20.60395        17.01887        -1.62296
H         21.27402        16.62280        -2.21865
O         13.09282         6.17691        -1.60611
H         13.90509         6.49713        -2.07382
O         12.62755         5.58658         2.00471
H         12.12992         4.89902         2.49764
O         13.64093        10.38295        -1.38350
H         13.86175        11.26103        -1.75776
O         14.50344        18.77226         1.39064
H         15.29852        18.44048         1.87180
O          7.36852         5.91738        -1.95461
H          7.46943         6.90808        -2.05396
O         17.90223        13.59747         1.32146
H         17.71388        14.25233         2.03752
O         19.62217        13.17934        -2.66149
H         19.53339        12.29600        -3.09072
O         17.92785        15.35984        -1.89077
H         18.32723        14.69923        -2.50592
O          9.86428        -0.02078        -0.57882
H          9.83588        -0.35074         0.34550
O         10.68992         1.01968         1.75563
H         11.38157         1.11063         2.44292
O         10.91914         7.60585         2.34677
H         11.71791         7.09788         2.62331
O         13.33993         3.33475        -1.83925
H         14.27851         3.26301        -2.19786
O         21.21210         3.29075        -0.90745
H         21.07234         4.14822        -1.38651
O         10.82333        12.33940         1.85932
H         10.85069        13.32295         1.95924
O          1.99159        14.16066        -0.12218
H          1.06456        14.42763        -0.27678
O         11.30659        15.95733        -2.61507
H         11.34252        16.82440        -3.07294
O          2.72775         7.51162         1.03145
H          3.45228         7.32946         1.67842
O          2.49406         8.72524        -2.44494
H          3.06372         7.99294        -2.78438
O         11.28543        10.22081        -1.12519
H         10.60684        10.64053        -1.70655
O         19.74825         4.61926         2.21644
H         19.51063         3.79277         2.68771
O          4.04130        14.83366        -1.38378
H          4.53213        14.48965        -2.15923
O         17.64711         5.48142        -1.92491
H         17.11711         6.15172        -2.42581
O          5.20711         7.26971         1.88201
H          5.98987         7.24909         2.49042
O          1.68019         3.81541        -2.30833
H          2.42930         3.87061        -2.94373
H          0.72956         1.53731         0.93618
H          0.40248         3.89513         0.31079
H          2.75171         0.26832         0.26136
H          0.12053         5.71868        -1.00730
H          0.02275         8.13543        -1.18654
H          0.07171        10.18645        -1.00047
H         -0.01565        12.60327        -0.44513
H          2.24733        14.91602         3.86362
H          2.00929        17.36878         3.47193
H          2.64725        19.40320         2.18791
H          5.05952         0.20763        -0.58768
H          4.20926        20.50720         0.60564
H          7.58157         0.30684        -0.83203
H          6.36877        20.39492        -0.49258
H         10.38527         1.74604        -1.50571
H          8.80777        20.30248        -1.03633
H         12.64560        -0.01009         0.40762
H         11.19167        20.19685        -1.31730
H         14.96205         0.17750         0.39486
H         13.53198        20.26897        -0.82867
H         17.37549         0.25074         0.49069
H         16.10452        20.02094        -1.15467
H         19.72737         0.42780         1.39024
H         18.49863        20.50243        -0.59333
H         21.82361         1.69519         1.50807
H         23.11692         3.94195         1.21033
H         22.98433         6.35187         1.32034
H         22.93396         8.36974         1.20022
H         23.06251        10.63002         0.30686
H         23.13629        12.41612        -0.97457
H         23.07752        14.82576        -0.55205
H         23.00407        16.65037         0.39921
H         21.21432        20.47967        -0.30207
H         23.12097        19.04489         0.46763
