         210
 CSIRO Nanostructure Databank - Neutral Graphene Oxide Data Set
C         30.66404        32.19396         1.33809
C         30.72407        33.42898         1.18280
C         30.63925        36.27422        -0.51649
C         30.62822        37.38538        -1.06566
C         30.87519        40.41527        -1.57350
C         30.48427        41.60032        -1.21135
C         32.76199        29.17124         0.72232
C         31.67530        29.77801         0.92277
C         32.95188        31.63655         1.51843
C         31.62330        31.13152         1.34859
C         33.03187        33.80463         1.14985
C         31.74972        34.35265         0.77625
C         32.98800        36.06220        -0.54209
C         31.72879        35.47463        -0.04965
C         33.05135        37.28980        -1.18586
C         31.80774        38.01332        -1.77687
C         33.19235        40.17609        -1.65667
C         31.90012        39.51140        -1.66161
C         33.29139        41.57765        -1.85744
C         31.28603        42.65157        -1.68276
C         32.97516        44.21812        -1.12687
C         31.77657        43.83765        -1.06482
C         35.45548        27.52038         0.32214
C         35.30235        28.91863         0.47332
C         34.10044        29.63533         0.69478
C         35.37413        31.78571         0.82835
C         34.14494        31.03031         1.04692
C         35.39081        33.20211         0.58065
C         34.21119        34.03896         0.46453
C         35.56560        35.81963        -0.75314
C         34.20714        35.21351        -0.42900
C         35.64995        37.26602        -1.13189
C         34.35630        37.98565        -1.40667
C         35.58257        40.16781        -1.02622
C         34.38540        39.46834        -1.32872
C         35.57324        41.60154        -0.95488
C         34.39168        42.31424        -1.34441
C         35.46744        44.44154        -0.72472
C         34.30507        43.73637        -1.09318
C         35.59483        45.84297        -0.55244
C         37.82747        27.40666         0.38164
C         36.51748        26.85804         0.30560
C         37.79986        28.82945         0.44239
C         36.58387        29.58452         0.52786
C         37.83283        31.72279         0.62667
C         36.58976        31.03068         0.65129
C         37.87340        33.11975         0.52769
C         36.65146        33.85090         0.29349
C         38.04788        35.84155        -0.46304
C         36.73261        35.16914        -0.16474
C         37.99302        37.34900        -0.28157
C         36.83538        38.04139        -0.67546
C         37.96180        40.18814        -0.25068
C         36.79518        39.46149        -0.65669
C         37.94846        41.62616        -0.22600
C         36.74214        42.32547        -0.54288
C         37.90995        44.47418        -0.11434
C         36.71563        43.75474        -0.47392
C         37.94086        45.92296        -0.10934
C         36.66727        46.46637        -0.36285
C         40.23219        24.56781         0.39476
C         39.20755        25.29140         0.34579
C         40.34494        27.33200         0.58389
C         39.05307        26.68631         0.41725
C         40.38164        28.75284         0.64685
C         39.11957        29.49573         0.38839
C         40.35083        31.63979         1.02548
C         39.11667        30.98782         0.50220
C         40.32388        33.14210         1.06472
C         39.11720        33.83903         0.57722
C         40.36689        35.94569         0.52974
C         39.18593        35.18244         0.25512
C         40.34311        37.33647         0.49493
C         39.15106        38.06088         0.12766
C         40.35319        40.22574         0.45122
C         39.14111        39.48787         0.13883
C         40.35223        41.64405         0.42720
C         39.12690        42.35471         0.14303
C         40.25402        44.50783         0.86436
C         39.10061        43.76769         0.21166
C         40.36572        45.95803         0.43442
C         39.17203        46.62610         0.03896
C         40.48611        48.65890        -0.08457
C         39.41323        47.99867        -0.17814
C         42.80165        24.49100         0.58003
C         41.53720        25.10893         0.53144
C         42.81722        27.27670         0.78367
C         41.56707        26.56861         0.64318
C         42.82636        28.71205         0.90835
C         41.61843        29.44678         0.81901
C         42.81634        31.63485         1.01609
C         41.65094        30.91470         0.93227
C         42.85518        33.11206         1.37725
C         41.59679        33.86548         1.02416
C         42.84012        35.96215         0.85237
C         41.58993        35.22479         0.85579
C         42.82023        37.34883         0.84242
C         41.51884        38.07427         1.08144
C         42.79126        40.22655         0.82689
C         41.56175        39.53583         0.73123
C         42.80942        41.65695         0.80237
C         41.57586        42.36893         0.66718
C         42.77918        44.49928         0.98657
C         41.57345        43.78195         0.75802
C         42.75194        45.92410         1.07969
C         41.59603        46.64922         0.62093
C         42.99771        48.59819         0.60018
C         41.69719        48.08192         0.32609
C         43.85364        25.18757         0.67004
C         45.37562        27.21739         0.84831
C         44.06541        26.55331         0.80671
C         45.41976        28.74612         0.91860
C         44.10501        29.43897         1.15278
C         45.36194        31.68326         0.73989
C         44.12616        30.94880         1.13019
C         45.31471        33.09806         0.64614
C         44.09748        33.81663         0.87339
C         45.26966        35.95825         0.51797
C         44.06832        35.21533         0.75227
C         45.25059        37.35850         0.61138
C         44.04475        38.08299         0.79098
C         45.27438        40.23465         0.85725
C         44.03576        39.50710         0.87417
C         45.29632        41.65196         1.01917
C         44.04046        42.36611         0.99972
C         45.25144        44.45536         1.44576
C         44.02286        43.77470         1.11087
C         45.18064        45.84797         1.76306
C         43.92340        46.64986         1.73641
C         44.00942        47.97763         0.98359
C         47.51808        27.42234        -0.13391
C         46.53693        26.70049         0.10309
C         47.67266        28.84514        -0.20484
C         46.55089        29.52196         0.33283
C         47.67816        31.66275        -0.17913
C         46.54120        30.95904         0.31296
C         47.81732        33.14050         0.11126
C         46.49373        33.84283         0.27612
C         47.62230        35.96212        -0.30863
C         46.48153        35.23179         0.21822
C         47.49933        37.44675        -0.38304
C         46.57199        38.06681         0.63303
C         47.65995        40.30591         0.34773
C         46.48396        39.56862         0.55672
C         47.76915        41.62984         0.85980
C         46.54935        42.31290         1.22033
C         47.53790        44.31109         2.36537
C         46.46899        43.70928         1.64837
C         47.48394        45.69980         2.59953
C         46.38902        46.26683         2.28218
C         49.94774        29.00641        -1.30421
C         48.76487        29.54564        -0.75064
C         49.92372        31.71124        -1.30641
C         48.79404        30.98703        -0.74848
C         49.84105        33.16942        -1.39479
C         48.77132        33.86519        -0.82699
C         49.57847        36.09620        -1.86530
C         48.67572        35.30398        -0.91609
C         49.78798        37.55782        -1.44259
C         48.59137        38.28510        -0.95363
C         50.07037        40.31509        -0.46341
C         48.66839        39.79138        -0.66852
C         50.24789        41.56795         0.20745
C         49.14409        42.17540         0.95085
C         50.74959        43.70977         1.86953
C         49.43991        43.17160         1.90715
C         50.95938        29.59149        -1.75657
C         52.10533        31.84862        -2.32741
C         51.06808        31.00461        -1.81760
C         52.00595        33.08943        -2.36257
C         50.92875        33.95362        -2.01141
C         51.91214        36.24916        -2.38710
C         50.87755        35.32164        -2.13154
C         52.05128        37.46869        -2.16394
C         50.96752        38.25891        -1.59951
C         52.32863        40.32985        -1.00266
C         51.12346        39.60763        -1.09288
C         52.58235        41.42478        -0.43921
C         51.59568        42.14345         0.26978
C         51.65432        43.26032         1.12060
O         32.30937        42.20670        -2.63757
O         47.37140        37.96259        -1.74273
O         33.06694        32.86537         2.19624
O         48.54740        43.52378         2.89681
O         45.75405        27.87902         2.06694
O         35.21900        37.50337        -2.51079
O         34.85388        34.98442        -1.72347
O         44.17017        30.20067         2.40691
O         40.13445        32.32493         2.30223
O         39.28355        30.37872        -0.81564
O         38.30435        35.61586        -1.89515
H         37.49778        35.87273        -2.39352
O         41.31297        38.05496         2.54514
H         41.34160        37.11716         2.83361
O         48.86865        36.13491        -3.13331
H         48.12194        36.77557        -3.01793
O         39.93673        44.52521         2.30972
H         39.04800        44.92690         2.41450
O         47.19785        37.78466         1.92637
H         46.56338        38.02312         2.63472
O         31.75421        37.69915        -3.16117
H         31.78683        36.72618        -3.27110
O         43.58467        46.96349         3.08624
H         42.74665        47.47128         3.09423
O         48.22739        40.41561        -1.91546
H         48.27627        41.38841        -1.80520
O         42.93071        33.12963         2.83981
H         42.10388        32.70799         3.17009
O         48.45163        33.21150         1.44365
H         49.29166        32.70656         1.40113
