         429
 CSIRO Nanostructure Databank - Neutral Graphene Oxide Data Set
C          1.42471         4.00800         1.16442
C          0.21116         4.74075         1.09265
C          1.20224         6.34422        -0.48465
C          0.09647         5.89505         0.36423
C          1.30422         7.81252        -0.94761
C          0.01084         8.57224        -0.79967
C          1.17402        10.62356        -0.06494
C         -0.02589         9.85685        -0.40016
C          1.11452        12.00274         0.22781
C         -0.08420        12.75071         0.04070
C          0.97547        14.87020         0.78414
C         -0.16792        14.09056         0.26873
C          0.97890        16.31638         0.42756
C          0.20112        16.83744        -0.62581
C          1.23541        19.03347        -0.35855
C          0.25528        18.19430        -0.93189
C          1.23415        20.48053        -0.50933
C          0.12022        21.19585        -1.07333
C          1.03814        23.38199        -0.38760
C          0.04705        22.56028        -1.08088
C          1.11476        24.86026        -0.53091
C         -0.04287        25.60954        -0.76858
C          1.11212        27.66657        -0.17567
C         -0.04793        26.99440        -0.58289
C          1.06586        29.05758         0.34585
C         -0.08547        29.94282         0.06917
C          1.11129        32.00869         0.78672
C         -0.06415        31.27655         0.26344
C          1.19792        33.49125         0.61097
C          0.20470        34.31674         0.16962
C          0.59162        36.75964         0.65814
C          0.54714        35.71244        -0.21001
C          1.15306        38.11016         0.39016
C          3.81427         3.72929         0.86828
C          2.60454         4.41176         0.52884
C          3.73718         6.44434        -0.63056
C          2.52018         5.60265        -0.37827
C          3.74904         7.85289        -0.48892
C          2.43103         8.47092        -0.09895
C          3.65779        10.69493        -0.07311
C          2.42693         9.96545        -0.10488
C          3.61847        12.06460         0.31528
C          2.33005        12.60291         0.91602
C          3.60207        14.86324         1.18189
C          2.28231        14.13703         1.09086
C          3.69373        16.15119         1.69215
C          1.86861        17.19738         1.05703
C          3.43060        19.18364         0.89890
C          2.17422        18.46817         0.54944
C          3.57384        20.52646         0.30232
C          2.36690        21.18669        -0.09564
C          3.58797        23.37202        -0.01573
C          2.31684        22.64603         0.03844
C          3.57729        24.79494        -0.12485
C          2.33459        25.52996        -0.23522
C          3.59203        27.65906         0.06382
C          2.33692        26.94795        -0.08437
C          3.63000        29.04740         0.29424
C          2.38818        29.73492         0.70012
C          3.77174        31.91607         0.97621
C          2.40549        31.22370         0.93810
C          3.69210        33.38053         0.60794
C          2.52219        34.07792         0.76253
C          3.61670        36.23638         0.10467
C          2.70357        35.53252         1.09702
C          3.68229        37.73223         0.25105
C          2.44771        38.50863         0.27044
C          6.34424         3.62610         0.51760
C          5.02064         3.86068         0.15076
C          6.19384         6.40828        -0.73573
C          4.93685         5.77474        -0.84926
C          6.15486         7.83366        -0.90417
C          4.93078         8.60582        -0.70967
C          6.07124        10.87089        -0.38910
C          4.90170        10.05191        -0.46092
C          6.06247        12.16497         0.18706
C          4.81378        12.81652         0.46607
C          6.10943        14.79502         1.39524
C          4.81935        14.16625         0.90242
C          6.14007        16.29890         1.29985
C          4.92633        17.00748         1.84529
C          6.01625        19.19134         1.00562
C          4.74866        18.49954         1.35958
C          6.06678        20.47466         0.40572
C          4.80452        21.20705         0.22160
C          6.00063        23.33342        -0.42874
C          4.77376        22.61792        -0.07727
C          6.03152        24.79650        -0.31794
C          4.80865        25.50694        -0.17853
C          6.03280        27.64304        -0.30785
C          4.81853        26.94220        -0.14449
C          6.03851        29.07683        -0.24329
C          4.84830        29.78105         0.12445
C          6.09285        31.90845         0.03482
C          4.90435        31.19374         0.28553
C          6.13177        33.36085         0.13216
C          4.93975        34.09702         0.36912
C          6.14499        36.21346         0.11229
C          4.93887        35.50757         0.24897
C          6.16321        37.67115         0.18872
C          4.89794        38.36858         0.28459
C          8.71884         3.67560        -0.00767
C          7.46886         4.29745        -0.10447
C          8.65269         6.38774        -0.72833
C          7.42017         5.67293        -0.59766
C          8.64019         7.79144        -1.02170
C          7.38976         8.37927        -1.29285
C          8.57486        10.75886        -0.31981
C          7.36773        10.45260        -0.88141
C          8.55652        11.99863         0.48200
C          7.31706        12.81832         0.45731
C          8.60760        14.87975         0.90314
C          7.36526        14.14133         0.88156
C          8.58165        16.30785         0.96035
C          7.34139        16.98573         1.24456
C          8.68667        19.05148        -0.35023
C          7.22991        18.46433         1.53022
C          8.56694        20.48316        -0.20019
C          7.30637        21.11811        -0.03214
C          8.54649        23.35530        -0.26642
C          7.31855        22.56100        -0.38757
C          8.51430        24.77278        -0.41720
C          7.25923        25.48208        -0.43593
C          8.47403        27.59540        -0.71491
C          7.26445        26.91319        -0.48225
C          8.42425        29.05182        -0.92685
C          7.23086        29.80083        -0.49377
C          8.53467        31.92004        -0.49904
C          7.27873        31.20484        -0.36650
C          8.56969        33.34098        -0.36829
C          7.33692        34.07105        -0.13558
C          8.55973        36.25316        -0.36599
C          7.33773        35.48588        -0.08607
C          8.62551        37.67828         0.02644
C          7.37288        38.35097         0.22296
C         11.15250         3.62662        -0.40359
C          9.93446         4.31990        -0.36624
C         11.11759         6.44819        -0.89125
C          9.91347         5.72895        -0.65292
C         11.07007         7.87936        -1.04193
C          9.85634         8.56947        -1.02096
C         11.07470        10.53841        -0.04336
C          9.86039        10.12187        -0.88911
C         11.18550        11.93863         0.62440
C          9.87118        12.70894         0.77079
C         11.04040        14.90562         0.43602
C          9.83950        14.17708         0.74222
C         11.06008        16.27145         0.39731
C          9.88094        17.08061         0.85083
C         11.06356        19.13880         0.10144
C          9.83490        18.39010         0.06691
C         11.03693        20.55937        -0.02865
C          9.79146        21.24015        -0.12711
C         11.01698        23.38157        -0.10676
C          9.78691        22.66840        -0.12162
C         11.01411        24.88124        -0.00661
C          9.72743        25.51685        -0.46554
C         10.98067        27.62732        -0.85969
C          9.71825        26.90312        -0.71205
C         10.98752        29.02498        -0.92139
C          9.73675        29.79520        -1.01616
C         11.00111        31.89456        -0.61980
C          9.75351        31.23001        -0.69699
C         11.03662        33.30941        -0.48037
C          9.80816        34.01509        -0.43175
C         11.11270        36.17804        -0.26877
C          9.84516        35.48217        -0.51120
C         11.11271        37.59711        -0.03509
C          9.86106        38.29859         0.11714
C         13.59121         3.59506        -0.65846
C         12.36879         4.30689        -0.65219
C         13.61587         6.40248        -0.97116
C         12.36516         5.73278        -0.85813
C         13.64797         7.86356        -1.17815
C         12.34175         8.66961        -1.31546
C         13.64946        10.63789        -0.20293
C         12.37085         9.88147        -0.37799
C         13.62697        12.02623         0.03838
C         12.31656        12.72437         0.00061
C         13.56753        14.92874         0.24979
C         12.29224        14.19840         0.06188
C         13.56907        16.28796         0.19776
C         12.27614        16.98171        -0.16504
C         13.51898        19.16332         0.16346
C         12.29252        18.45742         0.12298
C         13.50342        20.58583         0.11291
C         12.26438        21.27559        -0.00514
C         13.49075        23.42298        -0.13259
C         12.24210        22.70109        -0.06997
C         13.45304        24.81929        -0.49578
C         12.26146        25.51531        -0.57363
C         13.43330        27.61928        -1.17300
C         12.23397        26.91784        -0.90367
C         13.42701        29.04218        -1.12441
C         12.21338        29.74547        -0.90984
C         13.47550        31.82994        -0.57479
C         12.23705        31.16414        -0.73916
C         13.51874        33.26934        -0.44629
C         12.29606        34.01013        -0.46009
C         13.55810        36.17959        -0.44296
C         12.29607        35.43702        -0.35179
C         13.58325        37.59140        -0.01073
C         12.34063        38.26039         0.14977
C         16.05726         3.55076        -0.64748
C         14.82958         4.26186        -0.71872
C         16.07739         6.39751        -0.59167
C         14.83090         5.70165        -0.81162
C         16.07856         7.76585        -0.34732
C         14.91920         8.56725        -0.71327
C         16.08880        10.64536         0.09056
C         14.87939         9.97469        -0.26700
C         16.03819        12.04669         0.33634
C         14.81974        12.73554         0.27522
C         16.06102        14.92091         0.60229
C         14.76025        14.16681         0.76888
C         16.02964        16.35545         0.50783
C         14.79984        17.04517         0.35381
C         15.98765        19.20723         0.38442
C         14.77480        18.46379         0.27611
C         15.94379        20.63031         0.34990
C         14.73379        21.32133         0.18186
C         15.96265        23.50513        -0.03337
C         14.71183        22.75844         0.01550
C         15.98768        24.83675        -0.49143
C         14.71612        25.43210        -0.94747
C         16.02980        27.62331        -1.49714
C         14.70822        26.88570        -1.34457
C         15.89204        29.13448        -1.60828
C         14.64627        29.78056        -1.14911
C         15.99188        31.68321        -0.14819
C         14.69499        31.09463        -0.68308
C         16.00261        33.20163        -0.21467
C         14.78280        33.91484        -0.35185
C         16.08563        36.06029        -0.02562
C         14.85945        35.37925        -0.44940
C         16.05651        37.47560         0.19137
C         14.81868        38.20284         0.19412
C         18.55101         3.53078        -0.60461
C         17.29857         4.22194        -0.58993
C         18.54802         6.33338        -0.47263
C         17.31561         5.64712        -0.50898
C         18.53688         7.81108        -0.43781
C         17.31498         8.42336         0.20949
C         18.56049        10.59220         0.39084
C         17.32665         9.92977         0.17860
C         18.54495        11.99811         0.88985
C         17.25017        12.75724         0.80762
C         18.52089        14.94948         0.73538
C         17.26138        14.24222         0.72366
C         18.50264        16.38180         0.65462
C         17.25995        17.08486         0.55674
C         18.47663        19.22626         0.53119
C         17.24240        18.50980         0.51100
C         18.46848        20.72373         0.27546
C         17.17520        21.39767         0.75509
C         18.36844        23.56218         0.30327
C         17.18062        22.84553         0.30901
C         18.35766        24.96880         0.03821
C         17.18820        25.61392        -0.47421
C         18.53581        27.62381        -0.89009
C         17.29407        26.95611        -1.01553
C         19.24734        28.55518        -1.87416
C         17.04450        30.05555        -1.68542
C         18.52214        31.75202        -0.67058
C         17.22344        31.12386        -0.84916
C         18.48313        33.08463        -0.00240
C         17.22129        33.87321        -0.05318
C         18.50184        35.99868         0.39248
C         17.26734        35.30719         0.11605
C         18.48241        37.41934         0.57659
C         17.26312        38.13101         0.49575
C         19.74678         4.21919        -0.58361
C         21.01364         6.38933        -0.44677
C         19.77328         5.64239        -0.52752
C         21.05837         7.74582        -0.35418
C         19.83290         8.56857        -0.39655
C         20.97661        10.78689         0.00545
C         19.79848         9.97264         0.10040
C         20.99323        12.10872         0.32642
C         19.86430        12.75513         1.08831
C         20.94015        15.01470         0.91553
C         19.75473        14.26251         0.85033
C         20.93664        16.39993         0.81442
C         19.72817        17.11574         0.67142
C         20.93191        19.32941         0.42050
C         19.69832        18.55577         0.55970
C         20.95099        20.67526         0.49732
C         19.69874        21.43655         0.88041
C         20.65126        23.76841         1.25703
C         19.73646        22.90750         0.42275
C         20.55460        25.10973         1.17702
C         19.50471        25.74466         0.38302
C         20.69979        27.92677         0.31106
C         19.56524        27.07805        -0.04346
C         20.95347        29.12998        -0.23604
C         20.16338        29.72115        -1.39545
C         20.94909        31.95799        -0.81717
C         19.75052        31.15412        -0.94695
C         20.98207        33.22129        -0.32380
C         19.77816        33.83747         0.23936
C         20.91740        36.01945         0.70852
C         19.74329        35.31119         0.44864
C         20.89269        37.41258         0.91436
C         19.70026        38.10561         0.84614
O          8.95763        29.47968        -2.23116
O         14.28097        35.92557        -1.69299
O         19.12868        33.08089         1.32852
O          1.59710        31.57394         2.10274
O          1.63026         5.41043        -1.53585
O          4.87722         4.42324        -1.14533
O          9.11330        12.03594         1.84014
O         17.70820        12.17714         2.09669
O         15.91392        28.29055        -2.81322
O         14.66029        25.82581        -2.36383
O          1.30464        23.04197         1.01655
O          3.87574        19.20321         2.30332
O          9.12039        35.99667        -1.70229
O          2.51067        35.94220         2.23592
O          7.37181         9.59339        -1.98781
O          1.35637        14.51668         2.15951
O          6.61329        22.82078        -1.67095
O         19.54831        27.99351        -2.93048
O         19.03115         8.43366        -1.65273
O         11.63106         9.53500         0.85177
O          8.02290        19.05431         2.26074
O          2.55831        16.77513         2.20732
O         14.61025         8.34217        -2.16437
O         12.10897        13.47028        -1.23973
O          1.59575        29.05757         1.71518
O          3.15762        35.93653        -1.24550
H          3.83578        36.27011        -1.86995
O          0.04289        36.62796         1.89918
H          0.39443        37.31595         2.49719
O          4.17389        31.93790         2.38158
H          3.34780        32.07565         2.90222
O         12.13173        16.88043        -1.62498
H         12.16817        15.92722        -1.86116
O          1.67670         7.83974        -2.33197
H          1.79297         6.89800        -2.61336
O         17.14346        21.37398         2.21181
H         16.31053        21.80251         2.50034
O         20.29341        22.89028        -0.93413
H         20.26818        23.80782        -1.28236
O         21.08865        29.91325        -2.48563
H         20.87723        29.20507        -3.14598
O         16.01601        31.31660         1.26458
H         16.81370        31.73137         1.65971
O         19.65573        21.45293         2.32006
H         19.38450        20.56433         2.63131
O         11.66691        11.74257         1.96935
H         10.92046        11.37357         2.49286
O         10.06624        10.71599        -2.18699
H          9.37298        10.36696        -2.78759
O          6.11800        14.49115         2.84569
H          5.76585        15.27956         3.32475
O         10.22725        17.50669         2.21293
H          9.49987        18.11135         2.52062
O          7.64617        18.35064        -0.90009
H          6.98301        18.98203        -1.24774
O         17.41824         8.04705         1.62784
H         16.72501         8.53305         2.12252
O          5.14324        17.12521         3.28630
H          4.43554        17.72280         3.62455
O         11.07087        25.18653         1.44604
H         10.31564        24.72588         1.87054
O         18.49942        20.86386        -1.16542
H         19.23958        21.46725        -1.41692
O          2.30572        12.05577         2.27876
H          1.72441        12.65654         2.80087
O         14.54130        14.06179         2.21681
H         15.27301        13.52502         2.59084
O         12.24447         9.11503        -2.68047
H         13.16400         9.16988        -3.03310
O          2.14952         8.07006         1.28286
H          2.54629         8.73871         1.88122
O         17.86431        29.83675        -2.73818
H         17.43049        29.12509        -3.28477
O         20.22881        12.61203         2.49395
H         19.38075        12.58888         2.99576
H          1.45584         3.11564         1.80670
H         -0.63869         4.39847         1.70057
H         -0.80205         6.52185         0.45424
H         -0.91836         8.07587        -1.11933
H         -1.00142        10.35963        -0.34344
H         -0.97273        12.24078        -0.35610
H         -1.11638        14.61490         0.08843
H         -0.49651        16.18831        -1.17200
H         -0.44166        18.60148        -1.67622
H         -0.67629        20.62057        -1.56629
H         -0.74796        23.05824        -1.65503
H         -0.98401        25.09911        -1.01641
H         -0.99689        27.53740        -0.68738
H         -0.98859        29.49113        -0.36738
H         -0.95143        31.86621        -0.01157
H         -0.80660        33.92739        -0.04180
H          0.93764        35.85602        -1.22916
H          0.40529        38.92305         0.44063
H          3.79821         3.08217         1.75900
H          2.60723        39.59870         0.19533
H          6.56366         2.95842         1.36451
H          4.92791        39.46717         0.36593
H          8.76774         2.63836         0.35517
H          7.37681        39.44109         0.37631
H         11.17042         2.54351        -0.21406
H          9.90325        39.37190         0.35890
H         13.57162         2.50084        -0.54583
H         12.34198        39.32910         0.41174
H         16.03529         2.45064        -0.63952
H         14.85144        39.27279         0.44959
H         18.55004         2.43207        -0.65378
H         17.26242        39.21759         0.66715
H         20.69809         3.66776        -0.60980
H         21.95257         5.81599        -0.41458
H         22.02735         8.24542        -0.20612
H         21.87766        10.33717        -0.43778
H         21.91506        12.68519         0.16566
H         21.89858        14.49975         1.06664
H         21.89363        16.93526         0.87141
H         21.86819        18.79018         0.21684
H         21.89865        21.22466         0.39568
H         21.43500        23.29197         1.86247
H         21.26318        25.74299         1.72908
H         21.36981        27.56591         1.10468
H         21.82114        29.70840         0.11641
H         21.87981        31.53241        -1.21679
H         21.91051        33.80597        -0.38508
H         21.87774        35.48996         0.77232
H         21.83054        37.94397         1.12735
H         19.67734        39.19435         0.99701
