         594
 CSIRO Nanostructure Databank - Neutral Graphene Oxide Data Set
C         23.08603        69.50214        -0.75459
C         23.03916        70.92641        -0.58003
C         21.80315        71.61392        -0.71235
C         22.93265        73.75435        -0.62157
C         21.76208        73.00932        -0.72050
C         25.65210        65.37703        -1.61689
C         25.58797        66.77256        -1.29846
C         24.35507        67.42373        -1.16924
C         25.54636        69.49114        -0.49128
C         24.28372        68.80292        -0.84083
C         25.49841        70.97411        -0.18394
C         24.22758        71.67820        -0.39320
C         25.37848        73.87281        -0.39403
C         24.19528        73.11049        -0.45981
C         28.07236        61.19515        -1.52241
C         28.12209        62.56211        -1.75445
C         26.92310        63.30023        -2.30656
C         28.08250        65.46136        -1.71573
C         26.85597        64.72871        -1.80887
C         28.04936        66.83449        -1.50300
C         26.82436        67.52559        -1.22608
C         28.03173        69.70062        -0.93487
C         26.83005        68.89689        -0.90050
C         28.04028        71.11863        -0.64710
C         26.78966        71.74646        -0.15696
C         27.93118        74.00007        -0.43154
C         26.68984        73.27242        -0.19938
C         30.31911        56.91186        -0.27645
C         30.38337        58.39516        -0.55555
C         29.22668        59.07679        -0.90236
C         30.42302        61.21809        -0.82222
C         29.22864        60.48634        -1.09545
C         30.46550        62.63299        -1.05763
C         29.33479        63.28195        -1.56083
C         30.59713        65.46181        -1.46828
C         29.38656        64.72768        -2.00354
C         30.60928        66.92200        -1.64881
C         29.27209        67.64421        -1.63186
C         30.46863        69.78845        -1.25571
C         29.25058        69.06460        -1.25688
C         30.42753        71.21940        -1.17901
C         29.20308        71.90311        -0.82738
C         30.32086        74.15114        -0.19510
C         29.16072        73.35785        -0.53170
C         32.85527        52.68669         0.01688
C         32.86192        54.04794        -0.17552
C         31.65678        54.82268        -0.21762
C         32.88976        56.94789        -0.23966
C         31.65719        56.20372        -0.28097
C         32.86943        58.39205        -0.20232
C         31.59733        59.11425        -0.34251
C         32.77806        61.27237         0.11121
C         31.57999        60.51534        -0.39958
C         32.79099        62.73793        -0.24515
C         31.69269        63.37337        -0.75600
C         32.92500        65.57886        -0.68185
C         31.69474        64.82746        -0.94837
C         32.95740        67.01796        -0.88382
C         31.79779        67.69449        -1.26734
C         32.95566        69.85791        -1.17862
C         31.73397        69.11962        -1.28677
C         32.93103        71.29944        -1.30328
C         31.64767        71.87617        -1.46514
C         32.87046        74.14356        -0.15432
C         31.60749        73.89202        -0.68794
C         35.27793        48.36634         0.52622
C         35.25262        49.78784         0.54783
C         34.06264        50.53353         0.29571
C         35.32718        52.63232         0.23705
C         34.07818        51.92506         0.16237
C         35.38274        54.05702         0.04034
C         34.15368        54.75725        -0.49266
C         35.34830        56.92943        -0.11887
C         34.12653        56.24437        -0.20124
C         35.34496        58.38533        -0.33438
C         34.06551        59.09829        -0.28139
C         35.34351        61.34367        -0.09898
C         34.06649        60.57695        -0.31278
C         35.26299        62.76126         0.40288
C         33.93634        63.54049         0.33290
C         35.34568        65.66072        -0.23278
C         34.06293        64.92657        -0.26776
C         35.36272        67.13376        -0.26606
C         34.15861        67.77151        -0.63197
C         35.42851        69.85454        -1.03537
C         34.14905        69.17076        -0.89672
C         35.39068        71.42164        -1.23510
C         34.10266        72.10529        -1.12755
C         35.27021        74.15315        -0.34657
C         34.07762        73.47568        -0.60363
C         37.82042        44.13437        -0.02132
C         37.74328        45.53006         0.17365
C         36.52897        46.22989         0.32509
C         37.72408        48.33909         0.79888
C         36.49680        47.63596         0.55624
C         37.66515        49.75117         1.29589
C         36.46408        50.51185         0.77398
C         37.78064        52.61081         0.67484
C         36.48935        51.89943         0.59840
C         37.83254        54.09245         0.46763
C         36.55911        54.78584         0.19429
C         37.79682        56.91701         0.35000
C         36.58991        56.22954         0.10208
C         37.78230        58.38615         0.45349
C         36.64577        59.15469        -0.12997
C         37.80575        61.30106         0.29297
C         36.63327        60.62465         0.09682
C         37.84330        62.78198         0.24398
C         36.55398        63.50131         0.47027
C         37.75281        65.75170         0.70140
C         36.59983        64.96305         0.15499
C         37.80984        67.20867         0.38379
C         36.59611        67.86301        -0.12571
C         37.91088        69.95495        -0.56471
C         36.63597        69.21129        -0.52041
C         37.90786        71.43903        -0.63315
C         36.68598        72.15486        -1.03533
C         37.82634        74.30067        -0.23894
C         36.59994        73.65433        -0.68371
C         40.36265        39.82524        -0.24474
C         40.28888        41.26399        -0.06651
C         39.11006        41.96208        -0.07758
C         40.24719        44.11016         0.26727
C         39.05515        43.42061         0.01797
C         40.31003        45.56058         0.22883
C         38.99054        46.32534         0.15539
C         40.19671        48.41829         0.82901
C         38.97339        47.72464         0.63755
C         40.20082        49.82535         1.13641
C         38.97649        50.47400         1.16624
C         40.13588        52.67523         1.71268
C         38.89816        51.92283         1.38404
C         40.15180        54.16977         1.55891
C         39.00885        54.86829         0.91488
C         40.31013        56.98773         0.80435
C         39.01224        56.23905         0.74144
C         40.34481        58.45265         0.85651
C         39.06809        59.15212         0.71107
C         40.39127        61.32433         0.66321
C         39.10632        60.59067         0.35764
C         40.24155        62.73485         1.17775
C         39.09212        63.53057         0.58484
C         40.32212        65.70618         1.06012
C         39.00375        64.98325         0.98996
C         40.27656        67.21890         0.97339
C         38.99072        67.88900         0.56558
C         40.26731        70.10707         0.47515
C         39.13960        69.26647         0.03705
C         40.26844        71.49563         0.13027
C         39.06046        72.15655        -0.34639
C         40.27802        74.32426        -0.20126
C         39.04461        73.62051        -0.29737
C         42.77822        36.31666        -2.02174
C         42.82080        37.15691        -0.96187
C         41.55765        37.61549        -0.27230
C         42.76480        39.76060         0.40567
C         41.51931        39.11927        -0.10788
C         42.77415        41.24488         0.55726
C         41.60664        42.00788        -0.03806
C         42.74305        44.10728         0.91307
C         41.47699        43.37107         0.59708
C         42.72260        45.59288         0.87712
C         41.53733        46.26419         0.63879
C         42.76631        48.49206         0.86114
C         41.48083        47.73564         0.58600
C         42.72103        49.88361         1.35252
C         41.44658        50.57466         1.40580
C         42.64205        52.67409         2.07722
C         41.41351        51.93063         1.71479
C         42.73007        54.13012         1.88910
C         41.46875        54.87251         1.69005
C         42.77339        56.98688         1.61494
C         41.58557        56.25473         1.15152
C         42.65621        58.43733         1.76500
C         41.51624        59.16696         1.16378
C         42.74351        61.32236         1.55035
C         41.56231        60.58635         1.18732
C         42.74655        62.77064         1.50605
C         41.54782        63.47631         1.23334
C         42.60507        65.41648         2.10184
C         41.48089        64.85757         1.50537
C         42.54808        67.60587         2.06771
C         41.36919        68.12653         1.44053
C         42.53597        70.29630         1.57543
C         41.34950        69.50055         1.16019
C         42.60281        71.67379         0.99506
C         41.44064        72.24461         0.28871
C         42.75775        74.31079        -0.05418
C         41.49978        73.64846        -0.02204
C         45.23466        34.53775        -4.33806
C         44.03942        34.99302        -3.81856
C         45.36801        36.09114        -1.92604
C         43.98825        35.62707        -2.51397
C         45.36516        37.25836        -1.04372
C         44.10265        37.66281        -0.40830
C         45.32311        39.84660         0.25676
C         44.08579        39.05215         0.27978
C         45.31261        41.26735         0.57396
C         44.06063        41.98367         0.64780
C         45.23250        44.11604         0.95929
C         44.04371        43.38495         0.79821
C         45.20819        45.54989         1.06484
C         43.95866        46.30023         1.07158
C         45.19669        48.43293         1.28034
C         43.99022        47.70570         1.11167
C         45.18928        49.82713         1.43222
C         43.93323        50.51552         1.61120
C         45.21371        52.69669         1.88421
C         43.97386        51.92075         2.04633
C         45.20530        54.10920         1.95860
C         43.93936        54.81548         1.92975
C         45.16821        56.98454         2.17424
C         43.94826        56.28454         1.93071
C         45.13614        58.44341         2.44995
C         43.87713        59.22035         2.20473
C         45.18601        61.37411         2.04242
C         43.94348        60.66106         1.91363
C         45.18397        62.81008         1.96171
C         43.95455        63.49620         1.77079
C         45.10237        65.72189         2.22866
C         43.91848        64.90825         2.00642
C         45.03272        67.25999         2.41922
C         43.84448        68.08918         1.93162
C         45.12764        70.32225         1.98984
C         43.78222        69.60102         2.18502
C         45.18952        71.52345         1.07832
C         43.93533        72.21320         0.60917
C         45.22407        74.19205        -0.08460
C         43.97649        73.62176         0.14806
C         46.48519        34.88115        -3.77636
C         47.77795        36.41773        -2.32641
C         46.57701        35.77858        -2.70056
C         47.78607        37.48393        -1.40626
C         46.54280        37.97134        -0.83486
C         47.78624        39.90449         0.08455
C         46.54299        39.23771        -0.12591
C         47.83279        41.22687         0.80840
C         46.51127        41.95028         0.76969
C         47.69900        44.12055         0.58773
C         46.53315        43.38713         1.21381
C         47.56273        45.55612         0.41159
C         46.39800        46.25962         0.95924
C         47.64197        48.47263         0.76768
C         46.50457        47.69386         1.38483
C         47.63397        49.91010         0.98911
C         46.42887        50.57527         1.45391
C         47.67905        52.72023         1.71730
C         46.41811        51.96841         1.67700
C         47.68280        54.20427         1.75973
C         46.43288        54.86992         1.90673
C         47.65857        57.01161         2.05953
C         46.41795        56.29752         2.06526
C         47.69392        58.44558         2.42439
C         46.41770        59.22612         2.53597
C         47.63195        61.42677         2.20006
C         46.41367        60.69085         2.26146
C         47.59295        62.85040         2.19198
C         46.37044        63.57976         2.15824
C         47.57223        65.73588         2.78297
C         46.32621        65.03976         2.23840
C         47.67395        67.27994         2.58412
C         46.34600        68.04176         2.56062
C         47.74025        70.25790         1.96383
C         46.40803        69.56297         2.28705
C         47.72025        71.63737         1.27272
C         46.44761        72.25531         0.89145
C         47.66910        74.07306        -0.20484
C         46.44384        73.49075         0.19821
C         48.99900        38.12983        -1.05933
C         50.29827        39.92447         0.16409
C         49.00031        39.29933        -0.29697
C         50.23191        41.42961         0.05311
C         49.00945        42.06572         0.33504
C         50.08480        44.27040        -0.09284
C         48.90043        43.48572         0.23249
C         50.06107        45.67729        -0.11224
C         48.76895        46.37337         0.00896
C         49.91554        48.57542        -0.23104
C         48.74028        47.83506         0.25498
C         49.90924        50.08378        -0.03655
C         48.76363        50.65622         0.67868
C         49.94777        52.91243         0.52344
C         48.90207        52.02182         1.17862
C         50.20102        54.16873         1.44260
C         48.88840        54.92081         1.63853
C         50.09063        57.11145         1.52671
C         48.87940        56.34661         1.76194
C         50.11135        58.50055         1.63810
C         48.96446        59.23471         2.21371
C         50.09831        61.37976         1.85330
C         48.90429        60.71646         2.09231
C         50.12537        62.85938         1.76643
C         48.84814        63.60819         1.99841
C         50.21935        65.76430         2.11844
C         48.91971        65.04528         2.43794
C         50.22327        67.21732         1.84018
C         48.98266        67.96579         2.20591
C         50.28154        70.10167         1.43010
C         49.02591        69.45620         1.95238
C         50.22670        71.53482         0.95630
C         48.94301        72.17723         0.66754
C         50.08877        73.97370        -0.61822
C         48.90732        73.40389        -0.03844
C         51.37173        42.17292        -0.26357
C         52.51368        44.34941        -0.49978
C         51.34089        43.59585        -0.29627
C         52.50102        45.76498        -0.48299
C         51.24852        46.44766        -0.29041
C         52.39837        48.62691        -0.43447
C         51.21458        47.87356        -0.32075
C         52.39893        50.07044        -0.30049
C         51.20853        50.78958         0.00100
C         52.43691        52.89785         0.11088
C         51.24434        52.16185         0.27881
C         52.43134        54.34855         0.28265
C         51.33059        54.97511         0.84703
C         52.48817        57.19898         0.48859
C         51.34504        56.40764         1.13089
C         52.32223        58.68040         0.43731
C         51.26669        59.27674         1.29241
C         52.59704        61.34546         1.45690
C         51.29066        60.64850         1.50619
C         52.66708        62.83834         1.74134
C         51.40877        63.59574         1.82225
C         52.64522        65.67159         1.42542
C         51.42048        64.96637         1.73442
C         52.58831        67.03227         1.13820
C         51.37453        67.82306         1.31685
C         52.55130        69.86305         0.44411
C         51.42972        69.25176         1.00204
C         52.61277        71.25665         0.08693
C         51.44793        72.13026         0.30171
C         52.50388        73.86221        -1.12069
C         51.32762        73.34502        -0.53688
C         53.67737        46.53058        -0.66613
C         54.84469        48.69663        -0.78806
C         53.65362        47.93845        -0.62593
C         54.84230        50.09985        -0.72388
C         53.60977        50.79954        -0.42491
C         54.78927        52.97661        -0.62587
C         53.61108        52.21480        -0.28671
C         54.72453        54.36277        -0.70888
C         53.56617        55.10233        -0.24689
C         54.58934        57.30724        -0.95007
C         53.52137        56.49841        -0.29666
C         54.64474        58.80199        -0.70217
C         53.52057        59.50200         0.03051
C         55.00925        61.35366         0.87300
C         53.75176        60.76559         0.76393
C         55.12217        62.76941         1.28321
C         53.91699        63.53032         1.41147
C         55.12054        65.64081         1.09500
C         53.89573        64.93623         1.30010
C         55.11687        67.01701         0.77253
C         53.79723        67.63955         0.53850
C         55.05264        69.78260        -0.00126
C         53.76458        69.07602         0.12834
C         55.02128        71.14127        -0.37384
C         53.76107        71.84035        -0.44706
C         54.95723        73.81687        -1.33067
C         53.74594        73.19850        -0.96929
C         56.02474        50.84960        -0.93258
C         57.19812        52.97812        -1.20588
C         56.01979        52.25962        -0.93995
C         57.19089        54.39210        -1.35561
C         55.87270        55.08207        -1.31553
C         57.11832        57.34058        -1.64076
C         55.82234        56.58098        -1.44503
C         57.21395        58.76950        -1.17023
C         55.96543        59.52680        -0.72692
C         57.42858        60.88947         0.63024
C         56.13483        60.62021         0.27232
C         57.62322        62.91549         1.40637
C         56.34109        63.52666         1.32130
C         57.59858        65.66224         1.06068
C         56.36574        64.94922         1.16833
C         57.60051        67.08384         0.85344
C         56.32293        67.72744         0.62082
C         57.49256        69.85528         0.19151
C         56.28169        69.11629         0.23290
C         57.45384        71.22306        -0.22548
C         56.22857        71.84763        -0.57917
C         57.43105        73.88924        -1.25447
C         56.21397        73.20538        -1.06898
C         58.36281        55.09295        -1.56233
C         59.70233        57.22301        -1.44432
C         58.41697        56.55146        -1.72424
C         59.77675        58.54583        -1.05078
C         58.54679        59.27353        -0.76705
C         59.85415        61.26171        -0.02518
C         58.61270        60.44075        -0.04050
C         59.93372        62.68963         0.47444
C         58.80563        63.50409         1.01951
C         60.08032        65.61550         0.94657
C         58.85882        64.94858         0.98823
C         60.12240        67.09889         1.31221
C         58.81548        67.83046         0.87743
C         59.75488        70.17859         0.94872
C         58.72378        69.25181         0.65965
C         59.77970        71.50357         0.42616
C         58.63607        72.00997        -0.24706
C         59.90522        73.99433        -0.93444
C         58.65896        73.32460        -0.81649
C         61.02712        59.19977        -0.77799
C         62.33437        61.22459        -0.30399
C         61.11217        60.52122        -0.32298
C         62.44014        62.59739         0.03507
C         61.28596        63.29484         0.65963
C         62.56930        65.45909         0.39525
C         61.33200        64.81044         0.84001
C         62.66076        66.89925         0.59223
C         61.47294        67.72738         0.90262
C         62.88017        69.76862         0.55137
C         61.75078        69.05008         1.12823
C         62.90349        71.17876         0.43434
C         60.95089        72.29881         0.43349
C         62.39386        73.98307        -0.69957
C         61.08720        73.44635        -0.38273
C         63.60297        63.31516        -0.23398
C         64.79891        65.42203        -0.68545
C         63.67333        64.73907        -0.10029
C         64.88722        66.80580        -0.73932
C         63.92950        67.59649         0.05119
C         64.85476        69.70546        -0.91225
C         63.86683        69.04352        -0.15053
C         64.82483        71.10938        -1.02500
C         63.78010        71.86244        -0.42830
C         64.64534        73.90814        -1.54813
C         63.59660        73.28138        -0.78903
C         65.84174        67.51444        -1.52978
C         66.76791        69.58445        -2.48762
C         65.85902        68.90934        -1.62017
C         66.79519        70.97438        -2.59803
C         66.02355        71.81247        -1.60248
C         66.63034        73.80982        -2.99112
C         65.72779        73.21597        -2.07024
C         67.63862        71.64508        -3.51109
C         67.57825        73.03796        -3.66516
O         61.53943        63.84984         1.96727
O         53.56861        68.02094        -0.88442
O         52.52669        56.81295         1.91273
O         35.91901        63.01230         1.69311
O         42.51538        40.39928         1.71705
O         48.56847        67.78448         3.61617
O         47.89739        71.44844         2.75061
O         57.72668        57.09959        -2.92853
O         45.70154        58.83375         3.75492
O         36.34887        65.14610        -1.26421
O         49.43726        53.36911        -0.68020
O         40.54277        54.81309         2.83080
O         41.23675        56.44403        -0.25414
O         48.68731        52.11707         2.62796
O         38.11734        58.86246         1.80111
O         29.98878        67.38111        -2.90542
O         44.67188        34.91355        -1.43592
O         40.03756        60.96981        -0.70741
O         57.67003        61.58389         1.81756
O         39.78591        46.12162        -1.04795
O         38.72066        63.31764        -0.80167
O         48.59511        58.73240         3.54612
O         42.84168        58.86245         3.17386
O         36.80922        73.15674        -2.06996
O         40.04425        62.65547         2.57580
O         55.50790        55.73519        -2.58628
O         45.53394        67.71503         3.72206
O         39.16015        52.29929         2.78318
O         63.82163        67.22208         1.45179
O         26.87627        72.48896         1.07771
O         50.01986        70.02152         2.86684
O         52.32004        59.42293        -0.81740
O         42.26496        71.48089         2.40447
O         45.77090        70.41541         3.28102
O         60.79006        69.82614         1.80480
O         54.17940        58.28205        -1.96965
O         49.61923        49.48293        -1.34125
O         49.86152        65.33481         3.50635
O         49.32849        63.39501         0.61714
O         40.70018        66.37204        -0.19457
O         44.15786        37.80617         1.04353
O         44.60539        71.23155        -0.26808
O         43.27507        52.18274         3.30424
O         25.50794        69.98241         0.90099
O         38.21701        53.13701        -0.62808
O         35.54127        70.50339        -2.34808
O         56.51850        59.73862        -2.04593
O         38.08829        65.33986         2.06892
O         51.16074        72.38768         1.71917
O         62.01892        71.91823         1.23806
O         42.25967        48.33951        -0.51503
O         38.92435        69.33488        -1.41938
O         59.70105        62.41774        -0.95988
O         34.76359        61.19989        -1.43749
O         42.36339        66.51702         2.89253
O         41.90589        43.51633         1.98736
O         47.79991        45.97735        -1.00957
O         31.60168        73.18618        -1.91543
O         36.25543        58.76398        -1.46398
O         52.88945        61.85467         2.81234
O         40.41796        37.12288        -0.96145
H         39.66436        37.08629        -0.34025
O         47.40707        65.54709         4.20213
H         48.13667        66.04494         4.63920
O         29.40850        56.25747        -1.16804
H         29.77296        56.31372        -2.07506
O         66.93702        71.97346        -0.45519
H         67.74172        72.42318        -0.79070
O         46.83863        47.63133         2.82272
H         46.12849        47.12785         3.27563
O         34.26473        54.67912        -1.95964
H         35.12476        55.07661        -2.21576
O         32.72876        61.17306         1.57105
H         32.83663        62.08499         1.94352
O         43.48301        69.64702         3.59780
H         44.27105        69.29798         4.08123
O         50.51570        39.57018         1.54254
H         49.79031        39.98922         2.06649
O         50.70008        53.73943         2.71659
H         49.99282        53.20349         3.15735
O         29.51980        64.70937        -3.46652
H         29.66700        65.65024        -3.73647
O         48.11345        40.94043         2.25035
H         47.40346        40.33652         2.56214
O         33.52968        63.78262         1.72904
H         34.36457        63.80380         2.26237
O         41.99232        42.22795        -1.42934
H         41.25692        42.69446        -1.88113
O         27.04087        63.34775        -3.74200
H         27.90932        63.77724        -3.94458
O         46.74936        43.40637         2.67714
H         47.38938        42.68057         2.87583
O         37.46210        49.66337         2.76599
H         37.78375        50.50408         3.16316
O         60.09369        67.14441         2.77153
H         60.25935        68.07667         3.03550
H         22.89466        74.85247        -0.64881
H         25.32546        74.95602        -0.57908
H         27.90632        75.09783        -0.36284
H         30.17660        74.95792         0.53915
H         32.97440        74.88630         0.65069
H         35.21627        75.12425         0.16825
H         37.80302        75.36250         0.04709
H         40.27044        75.42183        -0.27246
H         42.79004        75.37693        -0.32122
H         45.29124        75.20630        -0.50340
H         47.65376        75.04257        -0.72284
H         49.99307        74.91757        -1.17376
H         52.46706        74.83033        -1.64120
H         54.93537        74.84126        -1.73090
H         57.42330        74.90761        -1.67001
H         59.95731        74.94540        -1.48417
H         62.38929        74.98580        -1.15854
H         64.49441        74.95531        -1.85628
H         66.52585        74.87816        -3.23115
H         22.14015        68.96916        -0.93361
H         20.87733        71.03390        -0.83323
H         20.79705        73.52383        -0.82810
H         24.70884        64.82066        -1.72497
H         23.42386        66.86030        -1.32928
H         27.13774        60.64298        -1.70144
H         25.97782        62.75346        -2.06540
H         29.87839        56.79172         0.75508
H         28.29587        58.51141        -1.05600
H         31.89632        52.15701         0.12778
H         30.69108        54.29695        -0.16455
H         34.33844        47.82225         0.34659
H         33.10866        49.99440         0.19481
H         36.88536        43.55945        -0.09926
H         35.57831        45.68187         0.24056
H         39.44152        39.29363        -0.53172
H         38.15828        41.41643        -0.16991
H         41.80125        36.03729        -2.44507
H         41.58360        37.17199         0.76909
H         45.22682        33.98455        -5.28825
H         43.11365        34.91698        -4.40702
H         47.40472        34.57544        -4.29571
H         48.72064        36.12062        -2.80971
H         49.95159        37.70713        -1.41174
H         51.15912        39.52198        -0.42475
H         52.32171        41.65313        -0.45754
H         53.46873        43.82412        -0.64985
H         54.63417        46.01342        -0.83154
H         55.79121        48.16761        -0.97543
H         56.96389        50.31852        -1.14967
H         58.14409        52.43352        -1.34424
H         59.31778        54.54517        -1.54978
H         60.62408        56.62891        -1.53570
H         61.95636        58.65679        -1.00762
H         63.23959        60.71046        -0.66214
H         64.46063        62.79095        -0.68113
H         65.54914        64.81356        -1.21205
H         66.58034        66.93449        -2.10358
H         67.43691        68.98133        -3.12113
H         68.31710        71.05769        -4.14703
H         68.24505        73.52325        -4.39168
