         260
 CSIRO Nanostructure Databank - Neutral Graphene Oxide Data Set
C         30.36931        31.64651         0.05959
C         30.42419        32.87478        -0.03533
C         30.51584        35.91267         0.94187
C         30.43118        37.11429         0.71176
C         30.34507        40.48258         0.48244
C         30.31887        41.71856         0.49705
C         32.80137        28.83987         0.38281
C         31.71277        29.39638         0.23054
C         32.79585        31.58378         0.12200
C         31.52064        30.76654        -0.34753
C         32.81715        32.95134         0.02721
C         31.55062        33.83610        -0.12104
C         32.88680        35.83903         0.62903
C         31.63765        34.92258         0.95493
C         32.83233        37.34801         0.42931
C         31.48140        38.05232         0.30125
C         32.74957        40.30554         0.35351
C         31.43677        39.53653         0.23408
C         32.71967        41.82628         0.27093
C         31.37531        42.56130        -0.16767
C         32.73846        44.51131        -0.05918
C         31.61742        44.01614         0.17896
C         35.56712        27.23884         0.23075
C         35.35671        28.65405         0.27780
C         34.12321        29.32654         0.85150
C         35.33796        31.59309         0.20502
C         34.05262        30.87697         0.52918
C         35.30752        33.01134        -0.24874
C         34.05630        33.72135        -0.04593
C         35.19206        35.88276        -0.44308
C         34.05679        35.10752         0.08032
C         35.27987        37.36403        -0.21199
C         34.00194        38.08808        -0.11200
C         35.22961        40.33066        -0.37881
C         34.04428        39.54639         0.13115
C         35.28426        41.81193        -0.17998
C         34.05034        42.55812         0.10954
C         35.25461        44.65478        -0.49219
C         34.06634        44.01654        -0.17450
C         35.45198        46.06899        -0.65086
C         37.88344        27.05334        -0.24322
C         36.57338        26.51519         0.14974
C         37.83383        28.60447        -0.29871
C         36.53767        29.30781        -0.02059
C         37.82733        31.51094        -0.38941
C         36.54258        30.78233        -0.17099
C         37.78334        33.00121        -0.17429
C         36.48943        33.67980        -0.48889
C         37.76652        35.85262        -1.00361
C         36.46347        35.12065        -0.79171
C         37.76585        37.37366        -1.12379
C         36.55054        38.09792        -0.57159
C         37.77347        40.36605        -0.89952
C         36.46925        39.59204        -0.81440
C         37.74022        41.77385        -0.37253
C         36.45363        42.52562        -0.47952
C         37.80517        44.59730        -1.11489
C         36.49977        43.93879        -0.60956
C         37.82838        46.18291        -1.05314
C         36.47986        46.71629        -0.85439
C         40.44127        24.41973         0.52204
C         39.35027        25.03869         0.34620
C         40.28035        27.19666         0.50382
C         39.14889        26.43004         0.16393
C         40.26348        28.63886         0.33976
C         39.11820        29.31664        -0.05709
C         40.25733        31.54949         0.29783
C         39.18148        30.78713        -0.47841
C         40.35079        33.00289        -0.11898
C         39.07277        33.75625        -0.18356
C         40.35568        35.89552        -0.74298
C         39.06008        35.13425        -0.77237
C         40.38269        37.37999        -1.00529
C         39.08155        38.14348        -1.20843
C         40.33861        40.40759        -0.60524
C         39.09963        39.67180        -1.05214
C         40.30581        41.72885        -0.27844
C         39.03472        42.51476        -0.24438
C         40.37463        44.64206        -0.52586
C         39.07144        43.96201        -0.51764
C         40.36772        46.17801        -0.39087
C         39.06449        46.93761        -0.70340
C         40.18272        48.82342         0.33467
C         39.18522        48.30353        -0.18430
C         42.94639        24.58539         1.21232
C         41.64068        25.00357         0.91841
C         42.68430        27.33710         1.59100
C         41.49131        26.52332         1.08640
C         42.71439        28.89242         1.41703
C         41.57714        29.36796         0.47252
C         42.77736        31.65650         0.77857
C         41.59678        30.84036         0.24946
C         42.80809        33.03348         0.15765
C         41.55292        33.67650        -0.14226
C         42.78729        35.91526         0.02643
C         41.52314        35.17028        -0.14411
C         42.78232        37.42292        -0.03876
C         41.64068        38.17136        -0.69391
C         42.88637        40.40918        -0.15672
C         41.63823        39.67784        -0.62437
C         42.78430        41.78090         0.41107
C         41.43644        42.46732         0.41423
C         42.61597        44.61271         0.73922
C         41.68095        43.86325        -0.20876
C         42.34315        45.89250         1.12129
C         41.40974        46.81447         0.47991
C         42.61313        48.73116         1.31128
C         41.41729        48.20420         0.73534
C         43.91027        25.23100         1.69068
C         45.32659        27.42016         1.59235
C         44.03833        26.66784         1.85846
C         45.27802        28.80233         1.04466
C         44.06550        29.49026         0.95112
C         45.26544        31.55487         0.21986
C         44.06712        30.88089         0.64361
C         45.24076        32.98630        -0.01347
C         44.03899        33.71009         0.02823
C         45.31189        35.90924         0.29284
C         44.09102        35.20373        -0.31618
C         45.36223        37.40044         0.33755
C         44.06201        38.12687         0.26723
C         45.19714        40.19948         0.94590
C         44.12005        39.61094         0.10733
C         45.11371        41.68441         1.20932
C         43.87886        42.44744         0.88243
C         45.14481        44.64933         1.58501
C         43.74056        43.85999         1.48137
C         45.22571        46.18390         1.45768
C         44.19123        46.97846         1.85096
C         43.76877        48.31764         1.53491
C         47.52385        27.35747         0.73748
C         46.59625        26.72561         1.27006
C         47.79458        28.69240         0.33995
C         46.60357        29.54842         0.86649
C         47.62536        31.48729        -0.62189
C         46.47400        30.85000         0.13258
C         47.77688        32.93471        -0.03310
C         46.50676        33.72787        -0.41856
C         47.80705        35.90912        -0.17501
C         46.57302        35.13406         0.17389
C         47.82178        37.40190         0.02325
C         46.55258        38.09570         0.46627
C         47.51500        40.19655         1.53883
C         46.50244        39.49718         0.91691
C         47.41813        41.58970         1.92553
C         46.37729        42.37524         1.46770
C         47.74169        44.51513         0.91352
C         46.44516        43.86279         1.49085
C         47.67034        45.95209         1.28895
C         46.58247        46.54964         1.19959
C         50.26090        28.78112        -0.24888
C         48.91699        29.27152        -0.15737
C         50.25239        31.46616        -0.60918
C         48.94848        30.71473        -0.57489
C         50.21377        32.97110        -0.68126
C         49.06803        33.65950        -0.42764
C         50.30789        35.94248        -0.72336
C         49.10462        35.15342        -0.29284
C         50.19736        37.45092        -0.95317
C         49.13930        38.10118        -0.10631
C         50.34740        40.28970        -0.12961
C         49.39775        39.32137         0.44159
C         50.36250        41.70019         0.40433
C         49.23577        42.41000         0.07057
C         50.34430        44.44712         0.47525
C         48.99026        43.88174         0.34015
C         51.38204        29.29943        -0.35047
C         52.63633        31.56046        -0.84608
C         51.60130        30.77201        -0.09829
C         52.57711        32.75327        -1.14965
C         51.43809        33.67513        -1.24180
C         52.61090        36.09331        -1.42999
C         51.47258        35.16345        -1.32874
C         52.61216        37.31647        -1.25075
C         51.48066        38.25222        -1.26290
C         52.60851        40.64893        -0.73824
C         51.49565        39.72586        -0.98509
C         52.65744        41.78134        -0.23684
C         51.72581        42.37758         0.80031
C         51.39477        43.84463         0.69976
O         37.87312        27.74525        -1.49739
O         43.96636        40.26558        -1.16767
O         45.92970        44.32612         2.78626
O         34.83868        31.53535         1.58263
O         40.75821        45.55539        -1.64504
O         40.68092        36.42944        -2.06162
O         45.96169        35.28989         1.48081
O         31.33482        38.72889        -0.96848
O         49.71700        30.87648        -1.82330
O         36.31117        37.74361         0.82416
O         50.50739        37.90063        -2.28868
O         42.00814        35.53945         1.20138
O         43.03119        46.29849         2.28302
O         48.81005        39.69902         1.67062
O         38.25269        42.01904         0.96999
O         36.98507        31.16544        -1.53222
O         38.43687        40.30777        -2.19076
O         47.94303        44.38938        -0.52354
O         38.64143        46.76972        -2.07870
O         42.48312        29.41837         2.68766
O         41.96908        29.94301        -0.82524
O         43.06720        37.87770         1.32991
O         41.94366        38.97235        -1.86766
O         44.78953        40.66982         2.26598
O         41.67821        26.87944         2.50945
O         38.30448        37.79935        -2.38680
O         51.16162        34.36610        -2.48639
O         44.23639        35.31257        -1.71360
O         38.31839        33.55646         1.07243
O         44.80111        27.23202         2.92672
O         47.56097        36.78051        -1.31010
O         31.58014        34.55823        -1.37174
O         50.35648        40.33472        -1.60391
O         33.14472        36.73993         1.75069
O         38.46143        35.18293        -2.09798
O         35.50278        35.50045        -1.82376
O         50.10999        35.60806         0.68746
O         33.36786        42.35391         1.43543
O         33.56359        39.88839         1.48162
O         35.48802        39.99167        -1.80283
O         52.10912        42.00078         2.09196
H         52.98870        42.37752         2.29833
O         46.45549        33.89347        -1.84113
H         45.63332        34.44310        -2.05456
O         47.21438        31.51768        -1.98903
H         48.01527        31.64783        -2.54699
O         51.71939        31.00652         1.27401
H         52.54642        30.60615         1.61157
O         42.53323        31.93797         2.18402
H         42.57885        31.03487         2.65891
O         39.85546        31.52849         1.68348
H         40.61344        31.87309         2.22123
O         31.58143        30.68675        -1.74568
H         30.78374        30.22957        -2.08088
O         31.84629        34.31962         2.20350
H         32.04432        35.02116         2.86021
O         39.57010        30.80815        -1.85813
H         38.79650        30.52516        -2.39572
O         47.00366        29.90508         2.22473
H         46.78791        29.15632         2.82231
O         40.97003        42.62368         1.76790
H         41.72464        42.88648         2.35263
O         42.34737        43.60422        -1.45431
H         42.21581        44.38534        -2.03901
O         31.25163        42.44055        -1.55512
H         30.38717        42.79446        -1.84879
O         31.73059        33.55231        -2.42223
H         31.43520        34.05344        -3.22065
O         34.21049        29.15721         2.26369
H         34.53182        29.99994         2.65871
O         37.85487        44.27098        -2.52415
H         38.44969        44.92099        -2.96509
O         47.79726        32.76250         1.39405
H         47.63487        33.62262         1.83780
O         43.30754        43.68117         2.84465
H         44.10125        43.45614         3.38327
O         48.49573        42.14564         2.53236
H         49.16435        41.44050         2.68759
O         48.22659        41.80551        -0.60049
H         47.63675        42.51134        -0.95899
