         430
 CSIRO Nanostructure Databank - Neutral Graphene Oxide Data Set
C         27.95482        27.42662        -0.52957
C         27.96294        28.84026        -0.56008
C         26.78941        29.58578        -0.87035
C         27.98850        31.69211        -0.56719
C         26.81350        30.96675        -0.88374
C         28.01936        33.14372        -0.62504
C         26.93090        33.88862        -1.13693
C         28.02064        35.98917        -0.55707
C         26.93009        35.27211        -1.09867
C         27.98720        37.44644        -0.44496
C         26.78935        38.17080        -0.68391
C         27.93853        40.30942        -0.43964
C         26.75919        39.55083        -0.65977
C         27.93455        41.75240        -0.43526
C         26.73358        42.51228        -0.58426
C         27.96397        44.60633        -0.36411
C         26.74625        43.88688        -0.54558
C         27.99547        46.02507        -0.29819
C         30.30536        27.38094         0.10575
C         29.10178        26.71988        -0.18193
C         30.35139        28.80096         0.04986
C         29.16880        29.53691        -0.25655
C         30.36571        31.65042         0.14114
C         29.17614        30.96916        -0.21782
C         30.30019        33.11598         0.49697
C         29.15499        33.85523        -0.15877
C         30.32757        35.98518         0.48546
C         29.15700        35.25781        -0.13464
C         30.40176        37.45260         0.11511
C         29.16264        38.16437        -0.13688
C         30.36599        40.32445        -0.01483
C         29.15507        39.60101        -0.18881
C         30.38229        41.72500        -0.09675
C         29.15890        42.45212        -0.26987
C         30.41224        44.58935        -0.07178
C         29.18159        43.88210        -0.24083
C         30.41990        46.00442         0.01489
C         29.18353        46.69915        -0.10303
C         32.75239        24.51719         0.08559
C         31.57845        25.17873         0.23264
C         32.81496        27.35759         0.32660
C         31.52065        26.63249         0.61658
C         32.82145        28.77142         0.31545
C         31.58356        29.51019         0.24723
C         32.82986        31.65861         0.38224
C         31.58186        30.93394         0.27738
C         32.81633        33.07525         0.35607
C         31.62123        33.83362         0.32051
C         32.84991        35.98443         0.32635
C         31.64228        35.24948         0.33463
C         32.86969        37.42846         0.25612
C         31.60100        38.12804         0.18224
C         32.87944        40.30516         0.02878
C         31.61164        39.61293         0.43272
C         32.86881        41.71542        -0.08143
C         31.63012        42.44048        -0.02768
C         32.88822        44.54807         0.06752
C         31.64609        43.85247        -0.01626
C         32.90055        45.96504         0.23763
C         31.67595        46.69760         0.23857
C         32.93202        48.71645         0.77797
C         31.73415        48.08963         0.47363
C         35.32018        22.99558        -0.08341
C         35.25770        24.45822         0.07116
C         34.02986        25.18405         0.13985
C         35.26655        27.32867         0.16284
C         34.03574        26.62373         0.23279
C         35.28863        28.76677         0.17950
C         34.05955        29.48952         0.28760
C         35.31489        31.59626         0.28093
C         34.07211        30.92262         0.34235
C         35.38182        33.04897         0.44843
C         34.07939        33.81741         0.48964
C         35.30826        35.93886         0.14802
C         34.10695        35.28124         0.26096
C         35.38535        37.41664         0.41989
C         34.07665        38.12791         0.17370
C         35.29772        40.22939        -0.33632
C         34.10678        39.56746        -0.03544
C         35.32748        41.70430        -0.63262
C         34.08970        42.43046        -0.19854
C         35.37698        44.51730         0.09288
C         34.11754        43.82555        -0.02926
C         35.38583        45.89718         0.38506
C         34.14660        46.62920         0.46128
C         35.39270        48.62494         1.24632
C         34.15292        48.00290         0.80819
C         35.37210        49.85517         1.92092
C         37.66193        22.98470         0.72421
C         36.44511        22.28616         0.14617
C         37.75786        24.33657        -0.01508
C         36.47585        25.15040         0.11501
C         37.71578        27.28754         0.02980
C         36.50595        26.58792         0.11084
C         37.73357        28.72521        -0.38053
C         36.50970        29.47584         0.03402
C         37.77053        31.62780         0.00990
C         36.53763        30.89408         0.07740
C         37.80596        33.05255        -0.04214
C         36.61172        33.76322         0.09450
C         37.82659        35.93160        -0.23931
C         36.52403        35.19409        -0.34245
C         37.79182        37.35338        -0.32436
C         36.58168        38.06057        -0.22232
C         37.81878        40.22779        -0.38381
C         36.54361        39.47785        -0.70501
C         37.82376        41.63759        -0.19241
C         36.60718        42.38544        -0.19313
C         37.85338        44.46597         0.26631
C         36.61197        43.77356         0.04824
C         37.86072        45.86600         0.55062
C         36.62776        46.57330         0.63097
C         37.86799        48.53670         1.48794
C         36.63292        47.92522         1.08658
C         37.74431        49.68371         2.30802
C         36.53558        50.34671         2.51324
C         40.30744        20.19585         0.84453
C         39.07533        20.87680         0.79106
C         40.24133        22.98707         0.49500
C         39.00968        22.25560         0.62185
C         40.26872        24.41156         0.36254
C         38.95202        25.15829         0.48183
C         40.24038        27.30258         0.21644
C         38.98702        26.53004        -0.21627
C         40.21913        28.76678        -0.16074
C         39.04041        29.43638        -0.11745
C         40.34063        31.66297         0.00768
C         39.03567        30.89608         0.09068
C         40.28818        33.10841        -0.26641
C         39.06451        33.77816        -0.23977
C         40.27126        35.92411        -0.54855
C         39.04480        35.22032        -0.35432
C         40.25535        37.36234        -0.60787
C         39.03544        38.07006        -0.49438
C         40.27799        40.20079        -0.35407
C         39.03163        39.50487        -0.41601
C         40.29585        41.60234        -0.13051
C         39.07179        42.32086        -0.00211
C         40.30463        44.45054         0.32984
C         39.08027        43.74332         0.21371
C         40.32240        45.84970         0.49412
C         39.10227        46.57351         0.71055
C         40.39346        48.67062         1.03471
C         39.14188        47.93649         1.12914
C         40.56176        50.07352         1.34415
C         39.75342        50.79924         2.26399
C         40.87279        52.89525         1.82697
C         39.89072        52.16029         2.50952
C         42.79784        20.21261         0.82650
C         41.51049        20.87679         0.67470
C         42.72049        22.99320         0.25207
C         41.49134        22.29120         0.45373
C         42.72823        24.38855         0.17491
C         41.47961        25.09042         0.23753
C         42.75828        27.30434         0.25341
C         41.51120        26.54098        -0.20695
C         42.79085        28.68029        -0.38628
C         41.50451        29.46729        -0.41104
C         42.76277        31.61272        -0.52024
C         41.58339        30.94043        -0.33390
C         42.76809        33.07335        -0.53569
C         41.52949        33.79252        -0.47813
C         42.75016        35.90109        -0.78972
C         41.51721        35.21106        -0.61872
C         42.73006        37.35756        -1.16988
C         41.48148        38.08629        -0.72450
C         42.75024        40.20485        -0.61285
C         41.49885        39.47449        -0.55167
C         42.73930        41.63166        -0.38141
C         41.55695        42.29017        -0.07860
C         42.79398        44.48187        -0.02338
C         41.60173        43.69604         0.45905
C         42.75808        45.89514         0.00565
C         41.55346        46.58428         0.36432
C         42.71163        48.73485         0.06700
C         41.54102        47.99764         0.49049
C         42.68283        50.15110         0.07291
C         41.65552        50.81688         0.77079
C         42.82994        52.97932         0.33952
C         41.75834        52.23850         0.97981
C         43.96060        20.84559         0.56848
C         45.26003        22.99132         0.06998
C         43.96936        22.20575        -0.09188
C         45.24273        24.41332         0.08149
C         43.99463        25.12628         0.06545
C         45.22601        27.27174         0.05703
C         44.01817        26.52492         0.02557
C         45.21472        28.73881        -0.01080
C         44.05380        29.42712        -0.30059
C         45.31876        31.60863        -0.61232
C         44.02740        30.83062        -0.89253
C         45.28398        33.09810        -0.56346
C         43.97461        33.79613        -0.64044
C         45.30080        35.91681        -0.87378
C         43.96295        35.20940        -0.74325
C         45.20584        37.41771        -0.67974
C         44.00237        38.08593        -0.82287
C         45.23042        40.25025        -1.02732
C         43.95189        39.51747        -0.76277
C         45.19549        41.70484        -0.66032
C         43.99932        42.36369        -0.42852
C         45.19169        44.53410        -0.58556
C         43.98550        43.80077        -0.32238
C         45.15152        45.94204        -0.60359
C         43.94576        46.63489        -0.32660
C         45.12708        48.81405        -0.55208
C         43.89851        48.05852        -0.34606
C         45.09935        50.22893        -0.53874
C         43.75019        50.90043        -0.69212
C         43.76718        52.37764        -0.41670
C         47.70013        23.04280         0.07453
C         46.49541        22.33616         0.05581
C         47.73201        24.45061         0.11788
C         46.47315        25.15122         0.13865
C         47.66896        27.34445         0.41118
C         46.44255        26.57428         0.14987
C         47.65795        28.80419         0.24012
C         46.47225        29.46172         0.07849
C         47.70151        31.70041         0.27972
C         46.37860        30.95890         0.26088
C         47.63910        33.16511         0.27669
C         46.45209        33.82393        -0.01438
C         47.65304        36.04780         0.04766
C         46.32455        35.31925         0.11529
C         47.64444        37.41963        -0.08107
C         46.42934        38.14633        -0.40071
C         47.68114        40.29104        -0.49721
C         46.45284        39.53556        -0.51583
C         47.66227        41.67629        -0.76077
C         46.43874        42.41911        -0.75167
C         47.67672        44.57453        -0.82975
C         46.42974        43.83109        -0.77364
C         47.66205        45.97764        -0.81820
C         46.36460        46.69527        -1.08442
C         47.58200        48.86652        -0.66570
C         46.36877        48.14565        -0.68681
C         47.52677        50.26839        -0.52807
C         46.30406        50.93798        -0.51903
C         50.21349        24.57609        -0.24771
C         48.98255        25.17525         0.07731
C         50.24352        27.39132         0.22567
C         49.00580        26.60629         0.39460
C         50.21717        28.80399         0.38618
C         48.95051        29.55399         0.03598
C         50.11510        31.70453         0.85412
C         48.86832        31.00411         0.47230
C         50.12209        33.21259         0.74228
C         48.86701        33.92645         0.41333
C         50.14903        36.03169         0.23060
C         48.88804        35.31316         0.25949
C         50.15221        37.43118         0.10824
C         48.87182        38.20893         0.30288
C         50.13794        40.29610        -0.27944
C         48.91847        39.60861        -0.25612
C         50.16984        41.71128        -0.53398
C         48.94495        42.39000        -1.09228
C         50.12662        44.58016        -0.76073
C         48.91930        43.87449        -0.82175
C         50.12217        46.01585        -0.76414
C         48.87539        46.71518        -0.77296
C         50.08223        48.82364        -0.76681
C         48.86258        48.15020        -0.74843
C         51.40558        25.29305        -0.22879
C         52.69625        27.43759         0.02468
C         51.45721        26.69745         0.01176
C         52.66571        28.84271         0.26895
C         51.42059        29.51804         0.43214
C         52.65774        31.74051         0.52157
C         51.44521        30.93887         0.96149
C         52.63728        33.16157         0.47099
C         51.41070        33.90334         0.53229
C         52.63528        35.98422         0.12276
C         51.39978        35.29467         0.30124
C         52.61010        37.41031        -0.19594
C         51.35937        38.15573        -0.04906
C         52.60770        40.29005         0.03637
C         51.38284        39.57051        -0.10841
C         52.52501        41.75111         0.18887
C         51.32966        42.44607        -0.32555
C         52.59590        44.56995        -0.51707
C         51.37918        43.86689        -0.55028
C         52.62596        45.97025        -1.10210
C         51.34630        46.74089        -0.83354
C         51.30367        48.12971        -0.84034
C         55.12732        27.50005        -0.08899
C         53.95136        26.78984        -0.14723
C         55.11749        28.91055         0.10182
C         53.88959        29.59325         0.27673
C         55.11776        31.74463         0.28933
C         53.87915        31.03474         0.37037
C         55.11336        33.17620         0.32287
C         53.87850        33.87935         0.32980
C         55.11908        36.04235         0.26980
C         53.87389        35.30896         0.21630
C         55.13825        37.46296         0.31619
C         53.94023        38.20650        -0.07169
C         55.07270        40.36861         0.42086
C         53.85267        39.65287         0.17544
C         55.10312        41.79457         0.31277
C         53.82993        42.53598         0.28655
C         55.05287        44.61754        -0.24693
C         53.81892        43.93212        -0.18047
C         55.04301        46.04947        -0.49075
C         53.90375        46.70664        -0.79269
C         56.34182        29.64377         0.08249
C         56.33771        31.01150         0.17213
C         56.33173        33.92547         0.33583
C         56.33222        35.29551         0.35202
C         56.27304        38.22917         0.69357
C         56.25645        39.61084         0.68247
C         56.29019        42.54408         0.19199
C         56.26354        43.92101        -0.02255
O         49.07920        29.60427        -1.38151
O         52.99237        42.27661         1.47527
O         45.74668        32.33570        -1.78506
O         34.78756        33.50141         1.74529
O         38.83416        50.12146         3.07024
O         49.95530        32.53365         2.06531
O         39.79802        31.27468         1.31955
O         48.31441        26.93234         1.66883
O         42.09968        28.89678        -1.63953
O         53.39393        37.79256        -1.36851
O         30.04860        35.98397         1.94423
H         30.81443        36.41065         2.38626
O         43.41427        50.74718        -2.12016
H         42.53875        51.16666        -2.25797
O         41.80264        43.53239         1.91780
H         41.83393        44.43169         2.30881
O         36.27513        35.08237        -1.81762
H         37.09037        34.70946        -2.21855
O         45.82708        31.13107         1.61601
H         46.46890        30.75136         2.25351
O         40.20480        27.37996         1.67088
H         41.06330        27.76968         1.97957
O         37.92665        23.97115        -1.40107
H         38.20729        24.78165        -1.89184
O         41.65020        26.45906        -1.63740
H         40.77706        26.18970        -2.01294
O         42.75818        27.56492         1.69662
H         43.07164        26.75716         2.15636
O         39.04212        26.35102        -1.67109
H         38.70192        27.20375        -2.06284
O         45.36893        40.23047        -2.50748
H         46.21049        40.69123        -2.72123
O         45.76954        35.57915         1.44415
H         46.32849        35.11645         2.10330
O         30.01600        33.15166         1.94046
H         29.92948        34.10765         2.18732
O         37.69205        28.69184        -1.90694
H         36.76358        28.48487        -2.15438
O         43.88166        21.94412        -1.53810
H         43.01872        21.50750        -1.70247
O         49.06034        42.27138        -2.56894
H         49.79471        42.85823        -2.85162
O         45.81295        35.68467        -2.20566
H         45.15308        36.02263        -2.84732
O         42.67405        37.35756        -2.64850
H         42.80308        38.28605        -2.94082
O         35.31751        41.82462        -2.11279
H         35.81354        41.04374        -2.46789
O         51.68091        30.72110         2.39501
H         51.28691        31.49998         2.85741
O         36.52119        39.38891        -2.20768
H         37.34464        38.92608        -2.47767
O         31.58770        39.70758         1.92359
H         30.68588        39.44673         2.21056
O         37.36966        23.12596         2.13081
H         37.90335        23.88515         2.47091
O         38.67880        25.35751         1.89163
H         39.27812        26.06901         2.22979
O         35.63244        37.53176         1.88623
H         35.00733        36.92691         2.34091
O         48.75583        38.40646         1.76666
H         48.68461        37.51702         2.17481
O         52.63571        45.77744        -2.56658
H         53.48268        45.33965        -2.79659
O         43.95790        30.61892        -2.32447
H         44.57360        31.27213        -2.73713
O         31.37620        26.64387         2.08869
H         32.18479        26.23275         2.46246
O         46.24597        46.71198        -2.56249
H         45.45993        47.25647        -2.78349
H         27.02331        26.88734        -0.75371
H         25.85949        29.04769        -1.10392
H         25.88905        31.50491        -1.13249
H         26.05643        33.37483        -1.55759
H         26.05518        35.80732        -1.49053
H         25.85355        37.63079        -0.87990
H         25.80250        40.05953        -0.83805
H         25.77392        41.99533        -0.71944
H         25.80682        44.44902        -0.65010
H         27.05467        46.58597        -0.39610
H         29.04453        25.62457        -0.12889
H         29.16594        47.79628        -0.05207
H         32.73028        23.43260        -0.09238
H         30.64369        24.60077         0.21848
H         32.92013        49.79416         0.98955
H         30.81579        48.69173         0.45873
H         34.41733        22.46974        -0.42874
H         34.42767        50.39202         2.07708
H         36.44010        21.19392         0.00881
H         36.50635        51.23448         3.15761
H         40.31917        19.11192         1.03030
H         38.14900        20.29937         0.92140
H         40.97707        53.97542         2.00035
H         39.24111        52.64292         3.25045
H         42.80028        19.18013         1.20863
H         42.85557        54.06911         0.49326
H         44.91098        20.31144         0.71209
H         44.53003        52.98479        -0.92505
H         48.64015        22.47430         0.06330
H         46.53590        21.23942         0.00760
H         48.45014        50.86070        -0.48024
H         46.30121        52.03598        -0.48656
H         50.25269        23.50647        -0.49688
H         50.11356        49.92138        -0.75841
H         52.33404        24.74514        -0.43877
H         52.22799        48.71843        -0.91403
H         56.09147        26.98668        -0.21468
H         53.99270        25.70568        -0.31696
H         55.98992        46.59855        -0.37544
H         53.94159        47.79198        -0.96303
H         57.28878        29.09686        -0.03164
H         57.29604        31.54465         0.12865
H         57.29635        33.40271         0.35854
H         57.29298        35.82704         0.37771
H         57.20334        37.71856         0.97855
H         57.18116        40.14533         0.93980
H         57.26445        42.04001         0.25864
H         57.21094        44.47580        -0.08123
