         576
 CSIRO Nanostructure Databank - Neutral Graphene Oxide Data Set
C          5.99461        19.22546         0.94567
C          6.02716        20.58155         0.51267
C          4.94705        21.38625         1.03122
C          5.98074        23.44169         0.26651
C          4.87447        22.73387         0.84110
C          5.98083        24.83790         0.24467
C          8.42929        14.81741         0.96933
C          7.88300        15.94386         0.40711
C          6.97170        16.89178         0.99001
C          8.29610        19.05118        -0.87347
C          6.67904        18.11947         0.39223
C          8.18673        20.52005        -0.88425
C          7.05521        21.25816        -0.24613
C          8.27439        23.43874        -0.61917
C          7.10375        22.68094        -0.23483
C          8.34487        24.83094        -0.41542
C          7.14801        25.57992        -0.07673
C          8.34878        27.75357        -0.20593
C          7.15312        26.98539        -0.05678
C          8.34941        29.12850        -0.30340
C         10.74708        10.44944         0.27449
C         10.69190        11.90399        -0.12114
C          9.54546        12.70666         0.45660
C         10.72941        14.78502        -0.18270
C          9.54622        14.07457         0.36343
C         10.73229        16.19882        -0.48091
C          9.55310        16.94654        -0.74935
C         10.75077        19.13809        -0.85455
C          9.51760        18.37655        -0.89850
C         10.77243        20.51117        -1.00027
C          9.48681        21.24455        -1.18057
C         10.81268        23.46799        -1.00895
C          9.48278        22.74341        -1.09312
C         10.80126        24.87944        -0.59838
C          9.60088        25.54203        -0.43745
C         10.83225        27.66367        -0.81161
C          9.66067        27.01500        -0.04576
C         10.88140        29.19683        -0.71588
C          9.58879        29.91578        -0.45788
C         10.84071        32.06865        -0.24362
C          9.63485        31.35589        -0.17309
C         10.81890        33.44018        -0.56747
C         13.32084         6.11739         0.40382
C         13.24704         7.57132         0.43281
C         12.07064         8.25837         0.44949
C         13.24262        10.42205         0.06366
C         12.02321         9.75871         0.68993
C         13.20160        11.89072        -0.16511
C         11.97689        12.65649         0.28221
C         13.18288        14.76144        -0.52911
C         11.96190        14.09925        -0.21093
C         13.17302        16.17826        -0.71387
C         11.97739        16.89258        -0.62038
C         13.22200        19.10715        -0.89205
C         11.98634        18.39217        -0.41195
C         13.25516        20.55696        -0.57006
C         12.00531        21.27717        -0.76831
C         13.19128        23.36670        -0.19595
C         12.01717        22.65975        -0.73584
C         13.27891        24.84209        -0.30252
C         12.07704        25.56284        -0.43088
C         13.29505        27.63537        -0.09028
C         12.10315        26.96975        -0.38149
C         13.21453        29.04861         0.41568
C         12.17409        29.88688        -0.31787
C         13.22355        31.93285         0.84087
C         12.13364        31.34543         0.01020
C         13.24425        33.23616         1.34285
C         12.00622        34.25099        -0.71086
C         13.17205        36.16882         0.62410
C         12.00609        35.48884        -0.08801
C         13.32187        37.53473         0.01227
C         15.78761         6.11843         0.28603
C         14.50214         5.44017         0.42722
C         15.77338         7.50681         0.21560
C         14.56040         8.29988         0.62838
C         15.69142        10.38002        -0.23799
C         14.54856         9.71801         0.10427
C         15.75765        11.85594        -0.16979
C         14.48807        12.64137        -0.09810
C         15.68305        14.71703        -0.58425
C         14.46741        14.07738        -0.46385
C         15.73246        16.11912        -1.02082
C         14.43282        16.86329        -1.09072
C         15.77378        19.03440        -0.79430
C         14.48380        18.35955        -1.08328
C         15.65800        20.30557         0.05612
C         14.44772        21.16325        -0.27679
C         15.73485        23.34637         0.22335
C         14.44402        22.58673         0.09524
C         15.80401        24.74259        -0.39229
C         14.51205        25.52170        -0.20709
C         15.78269        27.69202        -0.04251
C         14.51239        26.92234        -0.06847
C         15.75244        29.10254         0.43554
C         14.54666        29.75699         0.54999
C         15.73821        31.90996         1.12936
C         14.45603        31.12277         1.18797
C         15.74021        33.28845         1.17356
C         14.47779        34.03032         1.18539
C         15.72990        36.05313         0.56900
C         14.46679        35.36598         0.76923
C         15.75428        37.41972         0.05102
C         14.51353        38.09258        -0.26362
C         18.26220         6.03644        -0.02567
C         17.01823         5.39390         0.15367
C         18.26573         7.48266        -0.23586
C         16.96526         8.18479        -0.31376
C         18.21114        10.40585        -0.96795
C         16.91640         9.64441        -0.63822
C         18.21224        11.88468        -0.60991
C         17.03347        12.55346        -0.43478
C         18.25823        14.78396        -0.62894
C         16.97726        14.03265        -0.33275
C         18.20757        16.21059        -1.02115
C         17.01160        16.88153        -1.02098
C         18.23467        19.06184        -0.80412
C         16.94643        18.33466        -0.90979
C         18.26496        20.37277        -0.08639
C         16.98677        21.07186         0.24753
C         18.25669        23.31941        -0.00485
C         17.01728        22.58136         0.33255
C         18.26187        24.74308         0.12439
C         17.05770        25.46137         0.04788
C         18.28887        27.62823         0.51195
C         17.07877        26.92790         0.04160
C         18.22544        29.02586         0.83231
C         17.01303        29.72486         0.82032
C         18.27065        31.91393         1.50467
C         16.96354        31.12293         1.31836
C         18.21792        33.37251         1.34965
C         17.00329        34.02891         1.17101
C         18.20837        36.26827         0.97884
C         16.94680        35.43483         0.86391
C         18.20635        37.49776         0.10637
C         16.94199        38.07043        -0.21685
C         20.74998         6.03728        -0.10213
C         19.50872         5.36672         0.07208
C         20.70615         7.46471        -0.50199
C         19.42648         8.18972        -0.36213
C         20.69579        10.45619        -0.33858
C         19.41292         9.68213        -0.37156
C         20.69881        11.87491        -0.73362
C         19.49283        12.59543        -0.72205
C         20.72820        14.76057        -0.87795
C         19.49921        14.01996        -0.82251
C         20.74104        16.12492        -1.05715
C         19.49560        16.87829        -1.47606
C         20.77812        18.98636        -0.56975
C         19.52679        18.36993        -1.09338
C         20.75714        20.41813        -0.23441
C         19.52333        21.12371        -0.22292
C         20.80527        23.34339        -0.03007
C         19.48144        22.57981        -0.24628
C         20.75820        24.77639         0.33534
C         19.50988        25.47351         0.32880
C         20.76398        27.59392         0.68083
C         19.47295        26.87148         0.57885
C         20.76458        29.05825         0.92132
C         19.47636        29.68995         1.41604
C         20.75658        31.88838         1.24659
C         19.52822        31.19659         1.29145
C         20.76288        33.32624         1.24421
C         19.51614        34.13092         1.53517
C         20.65623        36.13269         0.53837
C         19.49693        35.48703         0.86070
C         20.66262        37.49617         0.01426
C         19.38910        38.10199        -0.25678
C         23.24487         6.16793         0.07111
C         21.99279         5.45043         0.15974
C         23.25751         7.52195        -0.30959
C         21.99825         8.23360        -0.56851
C         23.28968        10.45226        -0.38193
C         21.99406         9.70471        -0.26169
C         23.27824        11.89039        -0.65533
C         21.99278        12.58603        -1.06810
C         23.28128        14.73037        -0.80123
C         21.98916        14.00284        -0.49974
C         23.27072        16.11405        -0.84198
C         22.02600        16.89025        -1.22834
C         23.18943        18.86944        -0.12946
C         21.93552        18.26069        -0.57791
C         23.18821        20.34021         0.24004
C         21.94925        21.09615         0.05908
C         23.26951        23.29806         0.37855
C         21.95698        22.53042         0.53210
C         23.24491        24.66178         0.53241
C         21.99256        25.39181         0.58097
C         23.28928        27.55624         1.27302
C         21.99041        26.80162         0.99678
C         23.24833        29.03657         1.28247
C         22.04766        29.75712         1.23000
C         23.28883        31.93966         1.49942
C         22.01154        31.17071         1.25414
C         23.20463        33.35205         1.00269
C         21.98771        34.02037         1.04245
C         23.22600        36.24419         0.53642
C         21.96346        35.49410         0.82927
C         23.14268        37.57612        -0.12452
C         21.84689        38.16051        -0.28074
C         25.70089         6.29593         0.51244
C         24.48000         5.56199         0.46435
C         25.73728         7.59499        -0.00644
C         24.54421         8.20210        -0.68583
C         25.72000        10.41537        -0.69104
C         24.54411         9.71661        -0.58273
C         25.74453        11.85909        -0.68468
C         24.49489        12.57544        -0.72529
C         25.76913        14.71204        -0.83061
C         24.52355        14.02364        -0.80263
C         25.77052        16.15282        -0.74089
C         24.50502        16.81524        -0.72038
C         25.63655        18.94507        -0.44968
C         24.45742        18.20756        -0.49361
C         25.48492        20.37960        -0.47176
C         24.43562        21.09654         0.01056
C         25.84062        23.31257         0.43390
C         24.53941        22.50398         0.58287
C         25.78681        24.65234         0.70789
C         24.53575        25.45720         0.41261
C         25.77648        27.52966         1.00535
C         24.54880        26.84257         1.03499
C         25.82204        29.00077         1.21053
C         24.53176        29.75534         1.39816
C         25.71119        31.81213         0.72037
C         24.54608        31.19577         1.09782
C         25.64385        33.19541         0.20036
C         24.39668        33.99734         0.41276
C         25.50047        36.04730        -0.59826
C         24.56541        35.51177         0.51362
C         25.57945        37.56030        -0.52680
C         24.30361        38.22708        -0.50819
C         28.15220         6.32103         0.99725
C         26.92525         5.70523         1.03842
C         28.22523         7.75217         0.54501
C         26.95799         8.40149         0.05294
C         28.23400        10.45326        -0.70960
C         26.98722         9.61619        -0.88555
C         28.22702        11.81286        -0.69185
C         26.97475        12.56094        -0.72310
C         28.25894        14.68721        -0.57172
C         27.00635        13.98359        -0.79458
C         28.31856        16.20465        -0.62877
C         26.96394        16.89876        -0.52438
C         28.08733        18.98770         0.23748
C         26.91522        18.30504        -0.34070
C         28.28350        20.37384         0.43658
C         27.34817        21.37310        -0.01523
C         28.31091        23.34554         0.97534
C         27.13833        22.63645         0.54540
C         28.29592        24.70164         1.22219
C         26.95535        25.38191         1.35303
C         28.27789        27.52039         0.82432
C         26.99129        26.83377         0.97521
C         28.30655        29.02610         0.66917
C         27.02716        29.75079         0.81361
C         28.25390        31.87680         0.60290
C         26.99799        31.12212         0.67494
C         28.21065        33.31297         0.36337
C         26.93387        33.89795        -0.11983
C         28.09597        36.14653        -0.35766
C         26.86457        35.35062        -0.49706
C         28.05235        37.53405        -0.63941
C         26.77362        38.21931        -0.67290
C         30.56785         5.77133         0.95252
C         29.34976         5.66735         1.56517
C         30.70919         7.65717        -0.12137
C         29.53463         8.49728         0.27257
C         30.75772        10.46011        -0.49604
C         29.50088         9.66157        -0.79161
C         30.75847        11.81803        -0.41384
C         29.52963        12.58081        -0.87258
C         30.53027        14.51219         0.54662
C         29.43236        13.99768        -0.36824
C         30.52733        16.03457         0.78406
C         29.29555        16.77139         0.38136
C         30.88902        19.06235         1.39587
C         29.03499        18.04286         0.81949
C         30.82436        20.43066         1.11635
C         29.56517        21.08053         0.75504
C         30.83096        23.29376         1.21917
C         29.58400        22.61690         0.81930
C         30.79999        24.73761         1.45136
C         29.52849        25.45337         1.39554
C         30.68540        27.67039         1.57745
C         29.50668        26.84453         1.28125
C         30.70856        29.14302         1.32536
C         29.55021        29.79435         0.96927
C         30.63511        32.05997         1.32711
C         29.47088        31.23326         0.84244
C         30.63895        33.49475         0.78762
C         29.35045        34.09928         0.36470
C         30.51833        36.18425        -0.38191
C         29.32559        35.48621        -0.09858
C         30.47327        37.50190        -0.89116
C         29.25953        38.20724        -0.90938
C         33.03889         6.19317         0.98593
C         31.92699         5.49692         1.38895
C         33.14271         7.50226         0.33819
C         31.95805         8.21924        -0.08492
C         33.30094        10.39586        -0.16454
C         32.01171         9.67095        -0.39123
C         33.23325        11.84141         0.07874
C         31.97574        12.55761        -0.04449
C         33.13340        14.58059         0.89035
C         31.90255        13.89993         0.28841
C         33.15720        16.07667         0.71734
C         31.89329        16.79691         0.98798
C         33.17072        18.97429         0.67962
C         31.98667        18.28019         1.01738
C         33.22143        20.38314         0.80338
C         32.03302        21.14438         0.98358
C         33.32259        23.27727         1.35867
C         32.01130        22.58260         1.12227
C         33.24503        24.75735         1.02491
C         31.99588        25.44360         1.46007
C         33.30550        27.64966         1.46611
C         32.01921        26.88898         1.67490
C         33.12203        29.04180         0.92382
C         32.03364        29.86170         1.64350
C         33.03267        31.85675         0.16606
C         32.11381        31.41889         1.31988
C         33.00238        33.22509        -0.18209
C         31.91128        34.12896         0.24254
C         32.59111        35.76310        -1.63332
C         31.89790        35.56383        -0.28470
C         32.68190        37.25079        -1.90502
C         31.68472        38.06154        -1.50008
C         34.34140         8.20497         0.49360
C         35.63844        10.32330         0.58153
C         34.47361         9.62489         0.31716
C         35.68951        11.76399         0.49244
C         34.42876        12.49553         0.39390
C         35.62655        14.62790         0.40933
C         34.42621        13.90768         0.52017
C         35.57993        16.03852         0.33404
C         34.34190        16.75346         0.44008
C         35.63200        18.98957        -0.14258
C         34.26455        18.20682        -0.03061
C         35.63420        20.39007         0.42786
C         34.48790        21.07503         0.69635
C         35.72319        23.31822         0.44939
C         34.46228        22.56353         0.67033
C         35.80794        24.77550         0.66950
C         34.52811        25.50280         0.83643
C         35.77876        27.75727         0.66472
C         34.58922        26.95054         1.18313
C         35.34665        28.71806        -0.48032
C         34.12855        29.58676        -0.05094
C         35.18976        31.63163        -1.03280
C         34.11735        31.05358        -0.29312
C         35.13609        32.96039        -1.40410
C         34.00147        33.76671        -1.08075
C         33.89424        35.03193        -1.65168
C         36.87497        12.47681         0.55355
C         38.09888        14.59828         0.24849
C         36.91114        13.91237         0.39182
C         38.08689        16.03869        -0.20008
C         36.86745        16.76467         0.33433
C         38.15288        18.96256         0.01058
C         36.87763        18.25165         0.30904
C         38.16016        20.34313         0.03795
C         36.94699        21.07163         0.45896
C         38.19124        23.28603        -0.01298
C         37.00333        22.56796         0.48610
C         38.15962        24.68862        -0.07993
C         36.97524        25.44208         0.33903
C         38.00585        27.56694        -0.36088
C         36.96407        26.89482         0.21950
C         37.81500        28.95679        -0.76467
C         36.58062        29.51811        -0.86177
C         36.35598        30.82142        -1.57130
C         39.36954        16.82851        -0.07141
C         40.60107        18.98882        -0.28697
C         39.38487        18.21320        -0.13619
C         40.58974        20.36746        -0.38870
C         39.34938        21.10410        -0.24609
C         40.49149        23.19593        -1.03519
C         39.33085        22.50674        -0.36476
C         40.47670        24.69563        -0.85668
C         39.34887        25.39354        -0.53134
C         39.34066        26.91322        -0.64533
C         41.81494        21.15746        -0.51288
C         41.79130        22.48746        -0.74151
O         34.24529        27.34772         2.55143
O         12.72097        30.81584        -1.29548
O         10.22725        29.76898        -1.87613
O         16.55859        27.47981        -1.27200
O         36.94039        17.54730         1.58772
O         17.53429        31.33134         2.66319
O         27.01068         9.08873        -2.22185
O         25.34772        29.36350         2.56929
O         15.20454        12.34708         1.14725
O         20.36960        23.08232        -1.35157
O         16.64050         8.67619        -1.71628
O          8.36104        16.27032        -0.89853
O         20.83170        28.55630        -0.45075
O         18.88555        19.19627        -2.12890
O         15.02115        16.30220        -2.31096
O         31.52961        34.25274         1.65558
O         27.40963         8.61245         1.44066
O         13.51173        22.90740         1.18088
O         29.77432        21.93742        -0.45689
O         16.34608        23.17552         1.52324
O         31.08014        16.28337         2.11522
O         10.12970        23.27884        -2.29323
O         24.67126        33.36019        -0.89349
O         33.61719        25.22688        -0.30916
O         13.70110        18.86943        -2.24395
O         30.52351         6.30668        -0.36003
O         33.71239        18.08625        -1.33056
O         22.46012        26.97265         2.36855
O         31.30010        27.30354         2.86073
O         19.87087        10.23175         0.89568
O         32.86477        28.95805        -0.51831
O         34.81501        23.00674        -0.67891
O         32.89680         9.98173        -1.52792
O         26.52874        21.06159        -1.08639
O         32.77667        32.02396         2.39651
O         27.02096        34.31029        -1.53147
O         22.67171        36.24882         1.90295
O         29.73229        18.49847         1.94440
O         23.17867        19.30380         1.29400
O         28.41178        28.17379        -0.52068
O          7.12622        18.32760        -0.94078
O         37.19111        21.81287         1.72754
O         17.73820        14.61577         0.77433
O         13.01673        10.98921        -1.29522
O         22.69496        10.03257         0.96506
O         21.32970         7.81934        -1.80627
O         17.75774        20.39475         1.31164
O          8.59355        20.87744        -2.27591
O         19.57118        34.42328         2.99079
H         20.48099        34.73594         3.19160
O         22.19494        17.14030        -2.66226
H         21.30627        17.04368        -3.09001
O         21.95819        13.84737         0.94218
H         21.90272        14.73350         1.35610
O         40.27644        23.00837        -2.48876
H         39.38768        23.36527        -2.70186
O         12.19497         9.96450         2.13444
H         11.46991         9.49166         2.59356
O         10.53591        11.93777        -1.56681
H         11.30804        11.45609        -1.95042
O         24.91148        35.77199        -1.87858
H         25.30053        34.91942        -2.19448
O         18.20057        36.76152         2.36609
H         18.46811        35.99701         2.93500
O         25.23986        35.76380         1.76487
H         24.54001        35.89487         2.44716
O         35.87655        19.20891        -1.55418
H         35.02573        18.91908        -2.00037
O         19.45573        29.41064         2.84905
H         18.72442        29.95741         3.23176
O         12.12756        33.78132         1.85757
H         12.29396        34.71438         2.16040
O         31.75605        35.13409        -2.65095
H         32.11791        35.36275        -3.53237
O         12.70967        36.38031         2.01358
H         12.04740        37.10390         2.00725
O         32.67689        36.33502         0.66051
H         32.40783        36.03616         1.55881
O         29.92780         9.11095         1.53178
H         29.09435         9.37459         1.98936
O         14.31939        30.83228         2.63550
H         13.51521        30.26344         2.72323
O         33.62052        23.19789         2.78250
H         32.88694        23.61848         3.27904
O         21.75764        22.45177         1.99241
H         21.13788        21.71404         2.18149
O         18.38643        10.38863        -2.40505
H         17.88043         9.61069        -2.74532
O         37.54111        31.61873        -1.59858
H         37.81570        31.79168        -0.67473
O         29.68531        12.72066        -2.32479
H         29.74940        11.81646        -2.70425
O          9.99562        27.08669         1.36844
H          9.24344        26.71870         1.87782
O         22.05836        12.72191        -2.51630
H         21.96467        11.83702        -2.92719
O         19.46717        16.82154        -2.93687
H         18.96930        17.62243        -3.23451
O         28.83247        16.51344        -1.96020
H         28.30893        16.01146        -2.61970
O         12.03564        18.53966         1.04756
H         11.29339        18.03235         1.43778
O         26.61323        25.36482         2.78887
H         26.40473        24.43755         3.03476
O         13.11001        33.76418        -1.31262
H         12.95858        32.84501        -1.62610
O         30.09370        13.91588         1.82084
H         30.35294        14.53211         2.54324
O         34.96599        27.97013        -1.64373
H         33.98904        27.84010        -1.61530
O         40.32026        27.48066         0.24611
H         40.00291        27.35509         1.16412
O         32.24607        29.72563         3.04440
H         32.59691        30.61700         3.33456
O         24.57086        22.23148         2.03434
H         23.63519        22.10008         2.32912
O         30.34584        32.18584         2.73852
H         31.24271        32.38427         3.13563
O         23.41874        32.05362         2.97200
H         23.64192        31.16354         3.32381
O         14.67984         8.46581         2.08940
H         15.37765         9.13045         2.27161
O         29.60912         9.09435        -2.10340
H         28.66669         8.97208        -2.44369
O         12.00953        12.71994         1.72891
H         12.94404        12.73706         2.02724
O         36.25305        28.61494         1.72354
H         35.72107        28.40886         2.53094
O         12.65019        28.91080         1.77469
H         13.02362        28.10135         2.18470
O         10.68013        27.31669        -2.20298
H         10.35602        28.12508        -2.66922
O         15.30656        19.74138         1.35219
H         16.13862        19.69383         1.88222
O         24.67985         7.89706        -2.11490
H         25.58179         8.28654        -2.39332
O         24.62693        25.77353        -1.02816
H         24.70158        24.92761        -1.52053
O         33.00402        14.33569         2.34134
H         32.31676        14.96544         2.67126
O         37.82176        15.98046        -1.65239
H         38.58798        15.54552        -2.08226
O         15.92315        24.52118        -1.83295
H         16.09157        25.39921        -2.24495
H          5.32571        19.01484         1.79538
H          4.13331        20.86715         1.55799
H          4.00911        23.30507         1.20617
H          5.07965        25.37694         0.57344
H          8.00017        14.41638         1.89980
H          6.60448        16.69963         2.00782
H          6.19588        27.51534         0.06779
H          7.39232        29.67398        -0.30353
H          9.88715         9.82492        -0.01923
H          8.69988        12.19118         0.93552
H          8.68962        31.91552        -0.26469
H          9.85132        33.96301        -0.50932
H         12.37291         5.55783         0.40415
H         11.11786         7.70598         0.39568
H         11.02468        35.81251         0.29762
H         12.38917        38.07498        -0.21092
H         14.49914         4.34023         0.44887
H         14.56981        39.09650        -0.71099
H         16.99578         4.29946         0.26441
H         16.91594        39.05758        -0.70394
H         19.51758         4.29747         0.33229
H         19.36662        39.06126        -0.79696
H         22.02454         4.39847         0.48160
H         21.78795        39.17569        -0.70295
H         24.47374         4.51482         0.80274
H         24.24658        39.27542        -0.84190
H         26.85968         4.67827         1.42890
H         26.78278        39.31835        -0.74161
H         29.24327         5.13566         2.52278
H         29.23743        39.25733        -1.23581
H         33.99961         5.81916         1.37900
H         32.07730         4.66377         2.09398
H         33.55691        37.64851        -2.44159
H         31.71235        39.14034        -1.71615
H         35.21197         7.66882         0.90422
H         36.55368         9.78108         0.86330
H         35.93324        33.38037        -2.03365
H         34.72811        35.41181        -2.26478
H         37.82988        11.93671         0.63684
H         39.05022        14.04293         0.25465
H         38.69026        29.51918        -1.12519
H         36.11198        30.57818        -2.64526
H         40.31969        16.27597        -0.15422
H         41.55893        18.44953        -0.35131
H         41.36925        25.24889        -1.18895
H         39.67053        27.19005        -1.68200
H         42.77577        20.63562        -0.38217
H         42.73038        23.05521        -0.82449
