         210
 CSIRO Nanostructure Databank - Neutral Graphene Oxide Data Set
C         30.71131        31.59770         1.30717
C         30.86175        32.81588         1.61525
C         30.80865        35.96315         1.98366
C         30.83416        37.19504         1.83982
C         30.68433        40.41131         1.39586
C         30.58652        41.58701         0.93729
C         32.87280        28.95792        -0.16281
C         31.85078        29.47646         0.33946
C         32.92181        31.62766         0.36038
C         31.73574        30.85421         0.68201
C         32.98554        33.03709         0.70318
C         31.90714        33.70655         1.37903
C         33.05289        35.92080         1.07984
C         32.06431        35.10564         1.91848
C         32.93115        37.31277         0.82288
C         31.76026        38.08625         1.20603
C         32.68279        40.10484         0.13176
C         31.69568        39.46965         0.97606
C         32.90362        41.62525         0.14344
C         31.47737        42.41971         0.26178
C         32.69585        44.30195        -0.45719
C         31.58809        43.72472        -0.16937
C         35.62017        27.61667        -1.36779
C         35.23342        28.98854        -1.16035
C         34.10454        29.55759        -0.52490
C         35.28568        31.72272        -0.41724
C         34.08857        30.97826        -0.22849
C         35.21581        33.21505        -0.49038
C         34.13248        33.81898         0.35560
C         35.31263        35.97565         0.08164
C         34.14403        35.22751         0.49934
C         35.25775        37.38449        -0.12658
C         33.94056        37.96818         0.04926
C         35.43316        40.32413        -1.05727
C         33.61734        39.24862        -0.44606
C         35.31160        41.69204        -0.85524
C         33.90574        42.29940        -0.92720
C         35.19414        44.49504        -0.41030
C         33.98480        43.81820        -0.63306
C         35.35032        45.85367        -0.01257
C         38.05682        27.37550        -1.05168
C         36.69947        27.00237        -1.35021
C         38.25216        28.75063        -1.31875
C         36.34469        29.82976        -1.39449
C         37.81491        31.74399        -0.64950
C         36.50008        31.11230        -0.83368
C         37.78185        33.14747        -0.34770
C         36.55246        33.87238        -0.28278
C         37.77499        35.98754         0.15955
C         36.53472        35.25176        -0.05720
C         37.74419        37.51152         0.00636
C         36.46413        38.14124        -0.37619
C         37.78564        40.27142        -0.58948
C         36.55723        39.53656        -0.69088
C         37.74816        41.68481        -0.67805
C         36.52335        42.41507        -0.67280
C         37.69394        44.55641        -0.20807
C         36.49772        43.84918        -0.46428
C         37.72479        45.92624         0.24333
C         36.39769        46.45508         0.30339
C         40.13534        24.69717         0.41605
C         39.09072        25.33553         0.09128
C         40.23816        27.42805         0.08208
C         39.06763        26.70751        -0.31993
C         40.29188        28.84381        -0.06126
C         39.19838        29.55649        -0.65983
C         40.24028        31.67055        -0.07255
C         39.06949        31.00617        -0.53727
C         40.19736        33.10411         0.22269
C         38.99593        33.87407        -0.08757
C         40.27157        36.01164         0.06645
C         39.04053        35.26486         0.04860
C         40.25941        37.44463        -0.13580
C         39.04191        38.17701        -0.25042
C         40.29500        40.26575        -0.59526
C         39.04777        39.56777        -0.48400
C         40.30325        41.71127        -0.65980
C         39.01830        42.41910        -0.78337
C         40.24966        44.56762        -0.07060
C         38.99521        43.93152        -0.50543
C         40.23270        45.90952         0.40654
C         38.92828        46.56191         0.56017
C         40.08951        48.51066         1.50690
C         39.11340        47.87476         1.06879
C         42.70401        24.69970         0.76010
C         41.39670        25.18627         0.72343
C         42.70851        27.44646         0.59088
C         41.37054        26.76252         0.87215
C         42.72281        28.85268         0.45325
C         41.48838        29.57473         0.25720
C         42.72113        31.71883         0.32233
C         41.47350        30.98675         0.17884
C         42.75866        33.12765         0.28658
C         41.50846        33.88658         0.40113
C         42.74781        36.01068        -0.01908
C         41.50139        35.32923         0.12990
C         42.75722        37.41998        -0.23431
C         41.50507        38.13019        -0.29727
C         42.76982        40.21264        -0.82948
C         41.50050        39.53169        -0.54023
C         42.75991        41.76826        -0.83672
C         41.47959        42.45469        -0.58464
C         42.69034        44.53170         0.07298
C         41.47036        43.86509        -0.22904
C         42.67579        45.85474         0.59991
C         41.45113        46.57815         0.70521
C         42.64035        48.36611         1.94807
C         41.47303        48.14106         1.00660
C         43.79061        25.32915         0.69793
C         45.16660        27.43693         0.40011
C         43.96201        26.74624         0.57573
C         45.20294        28.87725         0.34430
C         43.96064        29.57501         0.40834
C         45.19775        31.71139         0.44802
C         43.96156        31.00282         0.37627
C         45.21025        33.13357         0.37834
C         43.98171        33.84511         0.24677
C         45.21086        35.97458         0.05443
C         43.97557        35.27642         0.09729
C         45.20750        37.38675        -0.14157
C         44.01512        38.11279        -0.32329
C         45.25481        40.26828        -0.75714
C         44.05257        39.54632        -0.59063
C         45.24659        41.74843        -0.74510
C         44.03895        42.43513        -0.59504
C         45.26475        44.55410         0.18706
C         43.97922        43.88326        -0.27808
C         45.14287        45.79215         1.01051
C         43.93433        46.42667         1.12722
C         43.65649        47.68234         1.74985
C         47.60486        27.43888         0.12008
C         46.49061        26.92152         0.26546
C         47.74974        28.92950        -0.16981
C         46.43713        29.60080         0.26854
C         47.68123        31.71046         0.76559
C         46.44876        30.99368         0.49076
C         47.68605        33.13166         0.68798
C         46.45514        33.84747         0.40103
C         47.69760        35.95976         0.02257
C         46.44952        35.24800         0.20309
C         47.72682        37.33032        -0.24733
C         46.49027        38.15942         0.01823
C         47.69330        39.89224        -1.22378
C         46.47800        39.47552        -0.71425
C         47.75141        42.01780        -0.90118
C         46.48957        42.51601        -0.51423
C         47.74364        44.26815         0.67192
C         46.50545        43.74793         0.18201
C         47.52232        45.52383         1.34740
C         46.43861        46.10706         1.52605
C         50.21029        29.00387         0.64618
C         48.92754        29.55184         0.50802
C         50.03607        31.37850         1.67296
C         48.87316        30.87943         1.02390
C         50.08524        33.51964         1.37711
C         48.88783        33.93804         0.71826
C         50.19275        35.87751        -0.08574
C         48.93033        35.24087         0.16001
C         50.21017        37.22689        -0.45182
C         48.97781        37.96873        -0.53085
C         50.19505        40.16411        -1.23594
C         48.96393        39.30555        -0.97302
C         50.18323        41.46233        -0.33524
C         48.96756        42.35319        -0.27673
C         50.27298        43.91385         0.92085
C         48.94816        43.56142         0.49616
C         51.28639        29.49479         1.09996
C         52.39138        31.78864         1.79638
C         51.35024        30.81510         1.59832
C         52.32492        32.99800         1.47268
C         51.36876        33.95397         1.04765
C         52.61469        35.93817        -0.02923
C         51.46623        34.96415        -0.06878
C         52.56248        37.10213        -0.44180
C         51.45309        37.98767        -0.67726
C         52.57103        40.20512        -0.81211
C         51.47251        39.31996        -0.99435
C         52.70830        41.38456        -0.43267
C         51.54425        42.05587         0.18189
C         51.38298        43.44393         0.60764
O         37.37839        29.37011        -2.22632
O         37.70925        36.87617         1.33077
O         50.73436        41.17689         0.98804
O         44.76691        44.73151        -1.18373
O         39.04176        43.39889        -1.87199
O         49.91094        32.57559         2.40777
O         34.31435        39.67128        -1.58475
O         42.74172        40.98539        -2.06980
O         47.73437        41.09071        -1.94542
O         40.71720        33.46086         1.55617
O         33.36778        42.13653        -2.23472
H         33.50844        41.20193        -2.51048
O         47.85816        29.10927        -1.58295
H         48.73737        28.78528        -1.87031
O         32.60653        34.99551         3.24130
H         32.03488        34.39416         3.76291
O         51.50186        34.23638        -1.29519
H         51.66716        34.86392        -2.02902
O         41.08050        26.98152         2.28423
H         40.99108        27.94709         2.43079
O         50.20630        40.62843        -2.59214
H         49.95404        39.89688        -3.19102
O         34.82415        33.49833        -1.89575
H         35.50519        33.09730        -2.47727
O         46.55988        38.50574         1.45816
H         46.59300        37.66504         1.96311
O         33.51644        41.89549         1.40707
H         32.97393        41.49283         2.11872
O         41.71042        48.79500        -0.20428
H         41.76467        49.76025        -0.05196
