         404
 CSIRO Nanostructure Databank - Neutral Graphene Oxide Data Set
C          1.44654         1.37908         1.01678
C          1.37237         2.66309         1.58922
C          2.63299         0.97716         0.44459
C          2.45171         3.53726         1.51390
C          1.15495         6.59350         1.24234
C          1.19669         7.83726         0.63264
C          2.35116         5.88723         1.43701
C          2.43383         8.44806         0.33753
C          1.32993        10.55143        -0.50085
C          1.39422        11.93232        -0.87576
C          2.44226         9.83548        -0.10915
C          2.50717        12.71582        -0.63285
C          1.51085        14.81243        -1.48795
C          1.59279        16.14448        -1.85196
C          2.61271        14.13536        -0.91549
C          2.77526        16.87955        -1.62986
C          2.87207        18.23119        -2.08374
C          3.76277         1.84607         0.41769
C          3.69278         3.20509         0.88639
C          5.00027         1.31489         0.01623
C          4.85550         4.06213         0.78879
C          3.59909         6.37497         1.02247
C          3.64836         7.72869         0.57586
C          4.83812         5.52394         1.14399
C          4.93717         8.41481         0.55358
C          3.73005        10.55970        -0.13476
C          3.65557        12.04512         0.01494
C          4.99384         9.86979         0.25016
C          4.92082        12.79617         0.26599
C          3.82251        14.86364        -0.65338
C          3.89387        16.26445        -0.98326
C          4.98362        14.21795        -0.11704
C          5.05666        17.03544        -0.67625
C          4.03055        18.93048        -1.91440
C          5.15003        18.39575        -1.18196
C          6.15636         2.09292         0.05433
C          6.08713         3.50060         0.37204
C          7.40173         1.44285        -0.16791
C          7.31613         4.26495         0.18559
C          6.14169         6.27588         1.01080
C          6.09473         7.74824         0.83515
C          7.36624         5.62466         0.48093
C          7.36124         8.46755         1.11063
C          6.15869        10.68712         0.66590
C          6.18500        12.05443         0.50244
C          7.37132         9.98787         1.11748
C          7.37291        12.83276         0.78193
C          6.16568        14.91696         0.16004
C          6.16172        16.35954        -0.02450
C          7.31637        14.22606         0.72508
C          7.20204        17.06900         0.56458
C          6.29337        19.21989        -1.16449
C          7.39213        19.02657        -0.27204
C          8.59745         2.11949        -0.39915
C          8.47829         3.61014        -0.48504
C          9.78463         1.33730        -0.38908
C          9.75229         4.50644        -0.66346
C          8.57919         6.42099         0.38250
C          8.62536         7.78866         0.82423
C          9.78124         5.82776        -0.03338
C          9.82997         8.51799         0.86608
C          8.65323        10.69432         1.05642
C          8.63350        12.14102         1.06688
C          9.84561         9.95107         1.11213
C          9.79900        12.83223         1.34939
C          8.46179        15.00349         1.28534
C          8.45836        16.48579         1.06176
C          9.77019        14.30354         1.73113
C          9.73829        17.31401         1.07526
C          8.72608        19.22630        -0.48520
C          9.87540        18.73286         0.38019
C         11.05746         1.76256        -0.82783
C         11.03612         3.88391        -0.93609
C         12.32350         1.35870        -0.43029
C         12.26257         4.38427        -0.48061
C         11.04743         6.48645         0.11346
C         11.07293         7.86984         0.55195
C         12.24700         5.77891        -0.11876
C         12.28176         8.58167         0.68536
C         11.09805        10.62738         1.31485
C         11.04108        12.07948         1.63060
C         12.30504         9.92762         1.17478
C         12.34202        12.85837         1.68100
C         11.03680        15.06818         1.25932
C         11.04055        16.58659         1.32600
C         12.33134        14.31884         1.30100
C         12.35997        17.40907         1.09333
C         11.09242        18.77910        -0.52905
C         12.30269        18.24721        -0.17483
C         13.50531         2.17424        -0.60456
C         13.48982         3.62049        -0.57009
C         14.74152         1.50172        -0.60366
C         14.73917         4.32007        -0.43209
C         13.51470         6.50306        -0.21239
C         13.53271         7.97362         0.20131
C         14.77023         5.73742        -0.24747
C         14.83991         8.56746         0.53918
C         13.62125        10.59534         1.37278
C         13.63341        12.09882         1.53380
C         14.89047         9.90915         0.98002
C         14.84951        12.82923         1.04837
C         13.64446        15.04995         1.38920
C         13.64644        16.56744         1.15510
C         14.87784        14.30397         1.09940
C         14.84875        17.10706         0.50453
C         13.51830        18.77191        -0.70833
C         14.77172        18.31536        -0.28097
C         15.98164         2.18127        -0.61360
C         15.97620         3.61368        -0.50103
C         17.20563         1.48267        -0.69209
C         17.21520         4.31256        -0.44920
C         15.98965         6.43219        -0.11658
C         16.01575         7.83305         0.25671
C         17.22460         5.72537        -0.24977
C         17.27048         8.46533         0.47246
C         16.13326        10.55855         1.18183
C         16.16176        12.06324         1.08083
C         17.31774         9.78122         1.00537
C         17.37525        12.91164         1.15227
C         16.06437        14.98045         0.82069
C         16.05567        16.39476         0.52222
C         17.32608        14.27270         0.77414
C         17.27140        17.03409         0.10686
C         15.98160        18.96815        -0.65200
C         17.22421        18.39400        -0.36979
C         18.44702         2.16309        -0.67517
C         18.44713         3.59733        -0.55491
C         19.67836         1.46953        -0.74262
C         19.68244         4.29800        -0.53106
C         18.47110         6.41829        -0.17202
C         18.50200         7.80519         0.16564
C         19.68993         5.71857        -0.35954
C         19.74419         8.50296         0.22104
C         18.62219        10.25793         1.35128
C         18.64083        12.41109         1.49851
C         19.80265         9.81802         0.79156
C         19.85165        12.93922         1.04135
C         18.55234        14.96762         0.54734
C         18.50808        16.35818         0.18845
C         19.80680        14.28510         0.58788
C         19.73483        17.07180        -0.01660
C         18.45483        19.09011        -0.59117
C         19.68012        18.48179        -0.36331
C         20.91633         2.15383        -0.70590
C         20.91388         3.58900        -0.62055
C         22.15829         1.46792        -0.71716
C         22.14769         4.30285        -0.61090
C         20.92570         6.43302        -0.35024
C         20.95083         7.82925        -0.10482
C         22.14968         5.72679        -0.52282
C         22.17746         8.58547        -0.21728
C         21.13607        10.53254         1.05063
C         21.11652        12.12913         1.07497
C         22.19342         9.96877         0.08957
C         22.34919        12.88824         0.62864
C         21.03028        15.00589         0.32365
C         20.96545        16.41589         0.10978
C         22.26994        14.33290         0.29955
C         22.23124        17.21466         0.26971
C         20.91554        19.20237        -0.52110
C         22.13846        18.60686        -0.30097
C         23.38568         2.16201        -0.65768
C         23.38151         3.60037        -0.64860
C         24.62941         1.47870        -0.56950
C         24.61094         4.32671        -0.62224
C         23.36798         6.46100        -0.61608
C         23.35507         7.87458        -0.60159
C         24.61549         5.74659        -0.66074
C         24.58536         8.56638        -1.12772
C         23.36284        10.76164        -0.30774
C         23.52351        12.16353         0.10055
C         24.59085        10.06439        -0.88117
C         24.68323        12.86353        -0.23380
C         23.49059        15.02706        -0.01576
C         23.48162        16.47865        -0.14436
C         24.68371        14.30242        -0.16074
C         24.62083        17.19341        -0.50200
C         23.36666        19.32294        -0.40826
C         24.59533        18.67554        -0.45781
C         25.84756         2.16972        -0.43948
C         25.84530         3.61865        -0.49162
C         27.07540         1.47140        -0.28122
C         27.04605         4.34253        -0.35906
C         25.85773         6.46539        -0.64517
C         25.87350         7.87499        -0.76860
C         27.08640         5.75555        -0.49385
C         27.09143         8.58424        -0.85787
C         25.88999        10.76008        -0.79044
C         25.89915        12.15485        -0.63001
C         27.10370        10.02046        -0.93621
C         27.11840        12.87007        -0.89252
C         25.99181        15.04271        -0.18037
C         25.84405        16.44213        -0.73717
C         27.12032        14.27795        -0.83942
C         26.96289        17.00701        -1.29549
C         25.79103        19.47899        -0.27734
C         27.00232        19.11758        -0.83833
C         28.29561         2.14614        -0.08155
C         28.26529         3.61789         0.00156
C         29.52493         1.49063         0.08779
C         29.60118         4.38737        -0.14025
C         28.33446         6.46546        -0.63754
C         28.33120         7.86980        -0.88340
C         29.57244         5.77500        -0.62779
C         29.54252         8.54470        -1.25269
C         28.33420        10.69486        -1.19510
C         28.31929        12.15086        -1.28497
C         29.51616         9.96281        -1.44070
C         29.44929        12.83649        -1.73062
C         28.25725        14.98815        -1.26401
C         28.27015        16.40741        -1.27261
C         29.41717        14.29106        -1.79053
C         29.47305        17.16101        -1.10253
C         28.32657        19.37541        -0.39150
C         29.44640        18.53794        -0.56823
C         30.77091         2.18645         0.01680
C         30.78398         3.56944        -0.31845
C         31.99888         1.52646         0.30845
C         31.98945         4.23077        -0.77538
C         30.76793         6.41984        -1.05464
C         30.73868         7.78560        -1.43541
C         32.02103         5.68611        -1.01125
C         31.97926         8.41249        -1.97379
C         30.60352        10.61495        -2.27505
C         30.68668        12.12983        -2.13752
C         31.99326         9.90655        -2.25001
C         32.02168        12.84617        -2.03915
C         30.75624        15.12046        -1.75104
C         30.69956        16.44138        -1.12080
C         32.04158        14.33791        -1.76865
C         31.89587        16.97338        -0.50450
C         30.64391        19.02219         0.03686
C         31.82196        18.29100         0.11845
C         33.22451         2.22119         0.32004
C         33.31245         3.51321        -0.38638
C         34.37277         1.73213         0.95412
C         34.48148         4.37436        -0.20571
C         33.25467         6.31557        -1.18948
C         33.28635         7.66628        -1.81585
C         34.47776         5.68951        -0.76543
C         34.59332         8.42378        -1.96933
C         33.28743        10.64343        -2.01095
C         33.25813        12.05375        -1.77778
C         34.52603         9.93466        -1.95968
C         34.41004        12.73765        -1.24935
C         33.22780        14.95360        -1.11200
C         33.08638        16.27054        -0.45849
C         34.38827        14.09394        -0.80434
C         34.35945        16.97469        -0.06047
C         32.92573        18.77727         0.87604
C         34.13758        18.09481         0.92655
C         35.56786         2.51330         1.05318
C         35.60053         3.84724         0.45799
C         36.67223         2.03590         1.73595
C         36.83844         4.56118         0.41072
C         35.72168         6.39458        -0.85097
C         35.81556         7.66469        -1.51399
C         36.90863         5.77247        -0.35217
C         37.08096         8.04559        -1.94455
C         35.73076        10.70875        -1.73497
C         35.65483        12.03998        -1.21209
C         37.03331        10.25579        -2.06383
C         36.83815        12.70658        -0.75422
C         35.53388        14.70873        -0.23193
C         35.48960        16.04877         0.30260
C         36.75835        13.99819        -0.19751
C         36.55960        16.55253         1.06371
C         35.18944        18.49242         1.77216
C         36.40563        17.78301         1.82273
C         37.85974         2.90700         2.01384
C         37.99791         4.02527         1.01135
C         39.14348         2.14529         2.21685
C         39.26940         4.60940         0.77768
C         38.18773         6.35476        -0.57759
C         38.28472         7.47168        -1.45204
C         39.37573         5.78758        -0.02569
C         39.56730         8.04587        -1.67429
C         38.22398        10.86832        -1.58896
C         38.12369        12.07170        -0.85226
C         39.51674        10.25390        -1.70811
C         39.28901        12.61745        -0.21394
C         38.02250        14.74653         0.14158
C         37.79930        15.84920         1.13454
C         39.19649        13.86310         0.46384
C         38.85121        16.30132         1.93790
C         37.47283        18.21740         2.64202
C         38.67592        17.50513         2.71874
C         40.34439         2.70456         1.94449
C         40.45389         3.99212         1.28508
C         41.69637         4.60977         1.06025
C         40.64850         6.40610        -0.22970
C         40.71587         7.63135        -1.00035
C         41.79099         5.80527         0.35186
C         41.88859         8.49391        -0.99062
C         40.62451        10.66481        -0.97181
C         40.51447        11.88413        -0.19944
C         41.84071         9.85793        -0.96202
C         41.57775        12.38606         0.59093
C         40.25995        14.34000         1.24578
C         40.11417        15.59708         1.99072
C         41.44336        13.55699         1.31469
C         41.13167        16.10823         2.78302
C         39.76064        17.97305         3.52466
C         40.95448        17.29267         3.54468
O          7.01861        18.38699         0.93783
O         11.62625        14.56341         0.01803
O         23.64286        10.69556        -1.79875
O         31.37268        12.62604        -3.33763
O         39.66324         9.14263        -2.55942
O          2.26340         4.73014         2.20498
O         33.04013        15.02600        -2.60021
O         28.94175         4.18091         1.15989
O          7.25781         9.20899         2.37241
O         22.06159        12.61304         2.08933
O          3.93983        12.54006         1.36361
O         13.84563        11.23745         2.68567
O         34.01085         7.69360        -3.09346
O         18.67889        11.27394         2.30128
O          4.65575        10.12213        -1.19009
O         32.79155         3.47185        -1.73738
O         11.66458        12.51265         2.90331
O         31.95202         8.94139        -3.33641
O          8.78387         4.26993        -1.74104
O         15.42706        12.33788        -0.20065
O         37.16637         9.11446        -2.85417
O         12.43421        18.41240         2.07613
O          5.66508         5.81952         2.32604
O         29.98718        14.94747        -2.96003
O          8.05681        15.91472         2.37235
O         11.02563         2.81275        -1.79756
O         13.82947        15.99580         2.48019
O         10.29967        17.19263         2.41140
O         26.88352        18.24127        -1.93628
O         13.46035         7.58742        -1.21757
O          9.80653        14.32314         3.16590
H          9.43248        15.18972         3.45607
O         38.39609        15.43325        -1.11833
H         38.55031        14.73832        -1.79369
O         21.56866        10.12164         2.36954
H         22.04089        10.89352         2.76736
O         10.14583        19.68378         1.41921
H         10.96763        19.33298         1.89438
O         22.36926        17.40480         1.73247
H         21.55822        17.86130         2.04352
O         24.49503         8.39756        -2.58653
H         23.92171         9.13186        -2.91037
O         26.40119        15.16741         1.23534
H         25.65204        15.58540         1.71297
O         30.06305        10.42488        -3.61005
H         30.62984        10.94291        -4.22506
O         34.81345        17.64167        -1.29855
H         34.80726        16.96916        -2.01427
O         37.58453         3.56459         3.32140
H         38.37111         4.11161         3.53338
H          0.58135         0.70421         1.05909
H          0.46348         2.98913         2.11072
H          2.74481        -0.03735         0.03758
H          0.20646         6.16104         1.58456
H          0.26005         8.38437         0.46500
H          0.34899        10.06091        -0.57123
H          0.48796        12.37106        -1.31547
H          0.57574        14.26885        -1.67572
H          0.73560        16.63981        -2.32957
H          2.01319        18.68231        -2.60033
H          5.06715         0.25662        -0.27409
H          4.11439        19.95671        -2.30006
H          7.40505         0.34314        -0.19650
H          6.32934        20.06242        -1.87186
H          9.69602         0.32086         0.02396
H          9.00987        19.76844        -1.40038
H         12.43852         0.40636         0.10722
H         11.06630        19.49562        -1.36694
H         14.74246         0.40194        -0.61188
H         13.46291        19.62331        -1.40427
H         17.19297         0.38538        -0.77095
H         15.93063        19.95132        -1.14239
H         19.67202         0.37169        -0.81361
H         18.42045        20.14117        -0.91410
H         22.16295         0.36816        -0.74387
H         20.87202        20.25391        -0.84391
H         24.63325         0.37846        -0.55624
H         23.33442        20.41977        -0.49423
H         27.06768         0.37155        -0.29636
H         25.72955        20.33866         0.40764
H         29.54275         0.39481         0.17664
H         28.47180        20.25309         0.25868
H         31.96158         0.50239         0.70772
H         30.61628        20.01875         0.50375
H         34.34155         0.74709         1.44299
H         32.79441        19.69772         1.46549
H         36.63723         1.03440         2.19138
H         35.04691        19.36107         2.43306
H         39.08753         1.16279         2.70918
H         37.36242        19.15210         3.21200
H         41.27508         2.16806         2.18490
H         42.60920         4.13812         1.45240
H         42.77936         6.26206         0.20688
H         42.87235         8.01992        -0.84813
H         42.79200        10.39135        -0.80921
H         42.52514        11.83262         0.64233
H         42.28985        13.89482         1.92762
H         42.10306        15.59880         2.84114
H         39.62816        18.88973         4.11704
H         41.78904        17.65948         4.15842
