         344
 CSIRO Nanostructure Databank - Neutral Graphene Oxide Data Set
C          1.29043         3.47408        -0.94825
C          0.10397         3.82784        -0.35709
C          1.22456         5.66222         0.76340
C          0.08086         4.90936         0.55938
C          1.20386         7.90885         1.23393
C          0.01172         8.63003         1.32392
C          1.16034        10.60337         0.52569
C         -0.02560         9.95785         0.90596
C          1.16192        12.02431         0.20669
C         -0.05039        12.71819        -0.02691
C          1.05804        14.88525         0.04100
C         -0.08962        14.12315        -0.08044
C          0.98313        16.34891         0.21744
C         -0.18017        17.11758        -0.24092
C          1.08565        19.23548        -0.23606
C         -0.14749        18.47301        -0.31769
C          1.07182        20.66649        -0.43357
C         -0.09547        21.42557        -0.41242
C          1.12530        23.56493        -0.39654
C         -0.08015        22.82840        -0.47461
C          1.14622        25.00989        -0.24395
C          0.00505        25.80161        -0.41569
C          1.21086        27.87989         0.03548
C          0.05677        27.21175        -0.34300
C          1.29905        29.30526         0.02107
C          3.71812         3.64654        -1.05891
C          2.50061         4.19941        -0.67628
C          3.62944         6.26184         0.20030
C          2.46193         5.42698         0.09498
C          3.62302         7.68650         0.49436
C          2.40696         8.45832         0.73126
C          3.62219        10.59427         0.40215
C          2.39385         9.87820         0.52018
C          3.61786        12.03385         0.35104
C          2.38328        12.72720         0.18941
C          3.52794        14.91176         0.66087
C          2.40734        14.21004        -0.11875
C          3.59450        16.39406         0.34445
C          2.31047        17.14849         0.33648
C          3.60761        19.17475        -0.47398
C          2.29158        18.54714        -0.07903
C          3.60841        20.67432        -0.32320
C          2.35968        21.39231        -0.74786
C          3.57135        23.51297        -0.12377
C          2.35231        22.85027        -0.37007
C          3.57382        24.93060         0.12817
C          2.39963        25.65176         0.07244
C          3.71465        27.78997         0.38135
C          2.38325        27.08624         0.55157
C          3.73599        29.25313         0.35992
C          2.49195        29.95990         0.20307
C          6.11103         3.53275        -0.62666
C          4.93358         4.24999        -0.62541
C          6.08964         6.34620        -0.09173
C          4.88798         5.64692        -0.15829
C          6.09902         7.74806         0.19627
C          4.83748         8.42533         0.39530
C          6.07458        10.59399         0.41466
C          4.84632         9.86871         0.42573
C          6.08490        12.03004         0.46005
C          4.84677        12.74991         0.43681
C          6.03973        14.89577         0.52341
C          4.85983        14.19775         0.47542
C          6.05815        16.36953         0.48354
C          4.76915        17.06652         0.28556
C          6.06488        19.23154        -0.11020
C          4.77278        18.57701         0.31692
C          6.07554        20.60799        -0.19998
C          4.79985        21.35091        -0.18120
C          6.03915        23.50628        -0.21355
C          4.80975        22.79295        -0.13204
C          6.08324        24.89707        -0.03831
C          4.86325        25.57272         0.58975
C          6.19164        27.74019         0.78089
C          4.86783        27.07672         0.45379
C          6.19168        29.24283         0.56248
C          4.93753        29.93304         0.42716
C          8.62984         3.46115        -0.24312
C          7.32690         4.17935        -0.03438
C          8.63174         6.31241        -0.08921
C          7.36357         5.62632        -0.52286
C          8.60305         7.81340        -0.18800
C          7.31003         8.46367         0.23991
C          8.53180        10.60305         0.47622
C          7.31661         9.88262         0.40872
C          8.53928        12.01684         0.44383
C          7.31681        12.73110         0.48174
C          8.52748        14.91602         0.04480
C          7.36653        14.21676         0.73899
C          8.56032        16.27670        -0.14155
C          7.33945        17.07838         0.14769
C          8.55990        19.18218        -0.51075
C          7.25014        18.42193        -0.55337
C          8.54102        20.61404        -0.53391
C          7.30091        21.31121        -0.46214
C          8.59786        23.54019        -0.57079
C          7.24982        22.76464        -0.61747
C          8.55020        24.93843        -0.15706
C          7.32736        25.60084        -0.11001
C          8.59989        27.82970        -0.14441
C          7.32115        27.08413        -0.01130
C          8.66251        29.10413         0.70797
C          7.39207        29.89324         0.55910
C         11.08405         3.48286        -0.10770
C          9.82257         4.14766        -0.09312
C         11.06086         6.28738         0.50325
C          9.78979         5.61475         0.04804
C         11.04528         7.78587         0.33777
C          9.84015         8.46150         0.35392
C         11.06501        10.64327         0.44604
C          9.81076         9.89180         0.79176
C         11.02738        12.04396         0.24292
C          9.78500        12.71595         0.24983
C         11.02546        14.83775        -0.51527
C          9.71648        14.10171        -0.22907
C         10.98364        16.30612        -0.55918
C          9.78462        16.99680        -0.49728
C         10.99336        19.19882        -0.72163
C          9.76501        18.46634        -0.58239
C         11.00252        20.59258        -0.66972
C          9.79098        21.33067        -0.55358
C         11.03501        23.45470        -0.21282
C          9.83335        22.76111        -0.42551
C         11.08054        24.85802        -0.01152
C          9.82132        25.65465         0.25980
C         11.11116        27.76979         0.09500
C          9.89493        27.05780        -0.42398
C         11.12390        29.16633         0.34368
C          9.92477        29.87055         0.48635
C         13.55534         3.49568        -0.14747
C         12.32228         4.17227        -0.05192
C         13.51880         6.31954        -0.02745
C         12.33366         5.61282         0.05303
C         13.49432         7.81323        -0.22718
C         12.27511         8.50513         0.31778
C         13.53099        10.63813         0.32277
C         12.27984         9.92229         0.35239
C         13.51886        12.06743         0.26070
C         12.27750        12.76953         0.06748
C         13.52003        14.88278        -0.22504
C         12.29224        14.14434        -0.20823
C         13.53650        16.28211        -0.47011
C         12.27452        16.97986        -0.81135
C         13.55180        19.19226        -0.70515
C         12.27351        18.47960        -0.93345
C         13.55186        20.58494        -0.65056
C         12.28333        21.37407        -0.90501
C         13.56864        23.44317        -0.25179
C         12.30060        22.64491        -0.05743
C         13.54780        24.83012        -0.06549
C         12.31670        25.52756         0.06487
C         13.56117        27.72933        -0.19503
C         12.35995        26.99690         0.42177
C         13.59957        29.18576         0.23700
C         12.40289        29.84632         0.44924
C         16.02064         3.51160        -0.16103
C         14.78562         4.19844        -0.14214
C         16.00076         6.36096        -0.13122
C         14.78129         5.64071        -0.12324
C         16.01085         7.81322         0.01276
C         14.77866         8.51235         0.12456
C         16.01049        10.59475         0.61570
C         14.74695         9.90029         0.33983
C         15.99038        12.12378         0.58507
C         14.72942        12.80228         0.26982
C         15.99523        14.91042        -0.03591
C         14.75030        14.19264         0.01489
C         15.98109        16.29249        -0.26093
C         14.75496        16.99742        -0.43345
C         15.96778        19.16914        -0.37159
C         14.76322        18.45799        -0.52669
C         15.99833        20.57915        -0.44994
C         14.77258        21.29777        -0.51746
C         16.03860        23.41925        -0.47080
C         14.78937        22.73195        -0.40600
C         16.08274        24.84312        -0.23226
C         14.84237        25.52630         0.29201
C         16.04916        27.68921         0.07857
C         14.85725        27.00649         0.03860
C         16.07058        29.14511         0.20635
C         14.85351        29.84285         0.32821
C         18.49257         3.52028        -0.17055
C         17.23976         4.21038        -0.16243
C         18.47886         6.33912        -0.18828
C         17.23908         5.64808        -0.16423
C         18.51402         7.83740        -0.39672
C         17.23744         8.52524         0.03068
C         18.47986        10.65824         0.33150
C         17.27996         9.91255         0.30857
C         18.48021        12.08029         0.44221
C         17.25840        12.82420         0.35823
C         18.50389        14.92420         0.17855
C         17.25388        14.20313         0.13477
C         18.51680        16.32034         0.01802
C         17.28126        17.03245        -0.49039
C         18.49239        19.19086        -0.19610
C         17.20876        18.44365         0.07703
C         18.48525        20.55260        -0.51953
C         17.25895        21.28779        -0.55615
C         18.48589        23.43636        -1.01731
C         17.23804        22.69823        -0.68327
C         18.50105        24.97172        -0.93559
C         17.26218        25.55342        -0.30109
C         18.52546        27.63847         0.09236
C         17.30255        26.96419        -0.00687
C         18.53178        29.06571         0.33251
C         17.31568        29.78689         0.34831
C         19.68034         4.21325        -0.18595
C         20.94717         6.37960        -0.27023
C         19.68923         5.63864        -0.20682
C         20.99344         7.71323        -0.07546
C         19.73787         8.46471         0.31534
C         20.91825        10.68007         0.81328
C         19.81080         9.98129         0.06422
C         20.88726        12.02373         0.95832
C         19.71049        12.79780         0.59293
C         20.90824        14.98482         0.66832
C         19.71596        14.21373         0.50122
C         20.89964        16.35248         0.55325
C         19.70593        17.07091         0.22731
C         20.88559        19.31068         0.31036
C         19.70638        18.49976         0.06710
C         20.91967        20.61607        -0.04278
C         19.82130        21.15996        -0.92143
C         21.01962        23.46940        -0.85135
C         19.78228        22.68724        -1.06616
C         20.98856        24.78524        -0.48269
C         19.78491        25.54823        -0.35813
C         20.97798        27.62927         0.31592
C         19.78397        26.91328         0.02004
C         20.95877        28.99653         0.57405
C         19.76344        29.72050         0.55922
O          7.66782        27.80326        -1.26569
O          6.43995        27.46777         2.17079
O         10.24743        14.22183        -1.59763
O         12.30226        17.63995        -2.14055
O          1.17653         6.62218         1.78219
O          6.89688        17.03746         1.54518
O         19.05732        23.01306        -2.32284
O         15.98795        11.37454         1.85234
O          7.88735        23.26978        -1.82874
O          1.49446        16.83086         1.50602
O          3.19027        14.77011         2.06130
H          3.70385        15.42445         2.57820
O          9.82356         9.81645         2.28482
H         10.55193         9.20769         2.53783
O         12.51783        27.04237         1.87883
H         11.67449        26.68873         2.25511
O         12.32954        22.19144         1.33195
H         12.38415        22.98385         1.90697
O         17.09342        18.29925         1.52443
H         17.01166        19.19479         1.91382
O         18.46482        25.47896        -2.30676
H         18.91737        24.79615        -2.85870
O         20.12147        10.16859        -1.36106
H         20.16758        11.13461        -1.52671
O          7.13104         4.24988         1.42092
H          7.00474         3.33540         1.74963
O          4.56160        18.94583         1.70822
H          5.31515        18.57617         2.21955
O          4.95600        25.31663         2.02504
H          5.58139        26.02796         2.37609
O         20.11648        20.64505        -2.25646
H         19.54944        21.15678        -2.87788
O         18.62317         8.01098        -1.83643
H         19.09926         8.86091        -2.00525
O          8.66348         8.08631        -1.65862
H          9.57663         7.88140        -1.95814
O          8.78234        28.59139         2.08223
H          7.85623        28.24711         2.35304
O          7.65252        14.37325         2.17690
H          7.53312        15.33387         2.37559
O          2.43269        21.35796        -2.24839
H          3.11706        22.01046        -2.51481
O         19.56412         8.31243         1.74300
H         19.53137         7.35342         1.94348
O         10.02938        26.85997        -1.84098
H          9.13988        27.03375        -2.23294
O         13.36879         7.97728        -1.70104
H         14.18904         7.61453        -2.10067
O         13.33972        27.70947        -1.63328
H         14.10301        28.14582        -2.06606
O          2.19932        26.99328         2.00674
H          2.98228        26.50835         2.35788
O          9.80191        25.91182         1.69705
H          9.28946        26.74625         1.88085
O          2.75954        14.35722        -1.53297
H          2.11594        13.83865        -2.06025
O         14.89254        25.41630         1.76933
H         14.15576        25.98519         2.10941
O          7.36837         5.62350        -1.97437
H          7.59975         6.54186        -2.25510
O         12.29376        21.78066        -2.29530
H         12.27550        20.97415        -2.85194
O          3.81767        18.89141        -1.88660
H          3.21964        19.49831        -2.38625
O          6.99855        18.06747        -1.95468
H          6.78542        18.88981        -2.44436
O         11.07586         6.11740         1.97194
H         10.97436         5.15801         2.15180
O         17.43198        17.17164        -1.93197
H         17.45996        16.27474        -2.32500
H          1.35137         2.58663        -1.59385
H         -0.81094         3.24879        -0.54210
H         -0.82776         5.13699         1.13096
H         -0.88380         8.14210         1.72895
H         -0.97330        10.50881         0.95776
H         -1.00032        12.17035        -0.07160
H         -1.07546        14.61022        -0.10244
H         -1.10283        16.58447        -0.51154
H         -1.06460        19.00072        -0.61427
H         -1.06964        20.93283        -0.28331
H         -1.04305        23.35669        -0.45657
H         -0.95010        25.33302        -0.69137
H         -0.83468        27.79040        -0.62858
H          0.38500        29.88349        -0.18412
H          3.74495         2.67490        -1.57333
H          2.52132        31.05941         0.17085
H          6.12627         2.48590        -0.96622
H          4.94289        31.03361         0.37783
H          8.63571         2.36415        -0.34456
H          7.44366        30.98713         0.44104
H         11.09582         2.38799        -0.21921
H          9.94532        30.95632         0.66588
H         13.56613         2.39766        -0.21725
H         12.40265        30.92189         0.68228
H         16.02600         2.41135        -0.16461
H         14.87419        30.91858         0.56114
H         18.49131         2.42061        -0.17164
H         17.34356        30.87524         0.50893
H         20.63802         3.67282        -0.19874
H         21.86798         5.81286        -0.47682
H         21.95521         8.24697        -0.10306
H         21.79968        10.10454         1.13076
H         21.74403        12.54179         1.41323
H         21.85398        14.47602         0.90002
H         21.84013        16.90119         0.69799
H         21.73664        18.87176         0.85100
H         21.80416        21.22902         0.18135
H         21.98880        22.96460        -0.96861
H         21.94978        25.27895        -0.27699
H         21.94605        27.11078         0.31020
H         21.90481        29.51932         0.77426
H         19.77266        30.80441         0.74255
