         762
 CSIRO Nanostructure Databank - Neutral Graphene Oxide Data Set
C         22.97104        25.01233         1.55666
C         21.76412        25.71221         1.48918
C         22.92538        27.65492         0.57217
C         21.74386        27.01803         1.01809
C         22.86912        29.02274         0.10439
C         21.75406        29.85535         0.29009
C         22.82156        31.75294        -0.86482
C         21.70192        31.14904        -0.22763
C         22.76215        33.06001        -1.46685
C         21.60073        33.92334        -1.50949
C         22.75828        36.16207        -1.64084
C         21.59455        35.29847        -1.62681
C         22.78630        37.52165        -1.17416
C         21.58009        38.32303        -1.14800
C         22.80982        40.33457        -0.43595
C         21.59724        39.66392        -0.93349
C         22.90950        41.81639        -0.42337
C         21.73406        42.58126        -0.19414
C         22.94958        44.71423        -0.66362
C         21.74151        43.94785        -0.21808
C         23.13787        46.05200         0.01332
C         22.16972        46.65566         0.77676
C         23.28065        48.80986         0.67672
C         22.29137        48.02612         1.18321
C         25.49282        23.42512         1.48072
C         25.45506        24.88890         1.30943
C         24.16938        25.60970         1.13786
C         25.38295        27.49248         0.04827
C         24.16243        26.92981         0.61023
C         25.30528        28.78412        -0.68583
C         24.01275        29.57522        -0.63368
C         25.27327        31.62999        -1.29569
C         24.04830        31.01954        -0.93005
C         25.23320        32.96632        -1.76623
C         23.96724        33.49642        -2.04475
C         25.26066        36.10609        -1.69096
C         23.98945        35.62670        -2.06425
C         25.26720        37.43927        -1.18648
C         24.04444        38.13816        -0.96404
C         25.41011        40.26823        -0.29850
C         24.08183        39.52081        -0.42158
C         25.37974        41.73853        -0.71147
C         24.17074        42.48338        -0.60567
C         25.45972        44.59495        -0.77913
C         24.22788        43.90980        -0.64728
C         25.51180        46.06555        -0.69301
C         24.36310        46.75339        -0.30084
C         25.63588        49.00320        -0.45041
C         24.31971        48.22485        -0.17935
C         25.80767        50.36621         0.05544
C         27.90109        23.30628         0.93563
C         26.64751        22.72401         1.37622
C         27.89889        24.67231         0.48368
C         26.71767        25.52907         0.74904
C         27.72754        27.29592        -0.82416
C         26.57622        26.80846         0.03335
C         27.78248        28.80951        -0.91354
C         26.56910        29.52663        -0.92276
C         27.75385        31.56824        -1.56555
C         26.54074        30.90480        -1.24926
C         27.75937        33.02579        -1.92788
C         26.44673        33.79101        -2.04451
C         27.69257        35.90342        -1.57503
C         26.47043        35.28075        -1.79840
C         27.74604        37.38518        -1.48278
C         26.52202        38.14966        -1.12915
C         27.79887        40.24797        -0.96586
C         26.56224        39.51220        -0.90529
C         27.82981        41.62663        -0.99054
C         26.60272        42.41401        -0.93226
C         27.91729        44.56790        -1.18874
C         26.64304        43.83943        -0.98204
C         27.96702        46.03027        -0.99029
C         26.78681        46.77156        -0.83890
C         28.06560        48.92579        -0.82510
C         26.85025        48.21230        -0.70907
C         28.12833        50.33198        -0.63272
C         27.01848        50.99424        -0.03287
C         30.38228        20.56737         1.60277
C         29.20894        21.28043         1.59508
C         30.28043        23.02369         0.22636
C         29.08710        22.53758         0.92776
C         30.25454        24.48240        -0.26835
C         29.04039        25.27778        -0.03650
C         30.24308        27.27909        -0.77997
C         29.05395        26.65865        -0.45409
C         30.22883        28.61178        -1.50338
C         28.98757        29.45644        -1.23396
C         30.23150        31.53008        -1.88804
C         28.96365        30.83649        -1.55249
C         30.25280        33.04932        -1.72946
C         28.97718        33.79552        -1.60543
C         30.17506        35.87771        -1.07156
C         28.94706        35.17707        -1.46990
C         30.25134        37.22947        -0.85681
C         29.06457        38.04994        -1.17818
C         30.27584        40.12661        -0.30691
C         29.01363        39.44762        -0.67572
C         30.37898        41.57495        -0.63239
C         29.14853        42.30002        -1.06741
C         30.45562        44.45077        -0.64511
C         29.22239        43.78957        -1.13657
C         30.55583        45.90482        -0.95840
C         29.27694        46.68138        -1.24393
C         30.58792        48.92021        -0.89981
C         29.30221        48.20146        -1.21255
C         30.49303        50.33188        -0.46955
C         29.37294        51.11077        -1.07778
C         30.47750        53.08715         0.02632
C         29.41365        52.54431        -0.64152
C         32.91228        19.00529         1.71102
C         32.80533        20.31028         1.13200
C         31.60952        21.05254         1.02990
C         32.75405        23.02365        -0.00108
C         31.59549        22.36917         0.41905
C         32.75261        24.45871        -0.29010
C         31.53424        25.18776        -0.38133
C         32.73630        27.29265        -0.75314
C         31.51170        26.58497        -0.62157
C         32.72520        28.71773        -1.05642
C         31.53514        29.36739        -1.36163
C         32.82154        31.58803        -1.53277
C         31.53215        30.78097        -1.76988
C         32.68723        33.01700        -1.13972
C         31.47221        33.66789        -1.18551
C         32.38860        35.60053         0.21183
C         31.27566        35.00921        -0.58354
C         32.67661        37.09506         0.09551
C         31.52834        37.91289        -0.43892
C         32.63669        40.08599         0.26367
C         31.54547        39.38399        -0.19488
C         32.63712        41.55109         0.30829
C         31.55761        42.30421        -0.11871
C         32.64800        44.46958         0.64342
C         31.52934        43.75796        -0.12078
C         32.85376        45.92830         0.28347
C         31.81606        46.62761        -0.54063
C         32.74549        48.76325         0.40963
C         31.81847        48.13448        -0.55014
C         32.43936        49.98221         0.93015
C         31.46925        50.90690         0.36138
C         32.78064        53.07585         1.20023
C         31.59074        52.32586         0.50978
C         32.90400        54.50628         0.72809
C         35.33971        18.76702         1.26627
C         34.07127        18.25572         1.70518
C         35.33083        20.21830         0.91103
C         34.02655        20.84142         0.49987
C         35.31453        22.95804        -0.29013
C         34.01063        22.23401        -0.09759
C         35.25697        24.45258        -0.36179
C         33.96453        25.18827        -0.37022
C         35.20587        27.34430        -0.60486
C         33.96422        26.59654        -0.57258
C         35.22516        28.72224        -0.74557
C         33.98598        29.45199        -0.97871
C         35.25504        31.59169        -0.94082
C         33.99798        30.83378        -1.06308
C         35.18145        33.08650        -0.58774
C         33.80530        33.62327        -0.41179
C         35.40037        35.88133         0.62713
C         33.54751        34.70825         0.37036
C         35.23640        37.26145         0.55940
C         33.86027        37.83703         0.74423
C         35.12305        40.06092         0.78826
C         33.82610        39.33504         0.76539
C         35.06610        41.47720         1.17521
C         33.81830        42.25554         0.88057
C         35.11029        44.44479         1.31742
C         33.99252        43.73043         0.54563
C         35.17403        45.85376         1.24313
C         33.97769        46.56973         0.73750
C         35.27545        48.78457         0.97939
C         34.03532        48.05034         0.61035
C         35.37881        50.25430         1.18864
C         34.26348        51.07795         1.48147
C         35.34307        53.02459         0.60527
C         34.14488        52.39136         1.07731
C         35.31154        54.36898         0.15281
C         34.04284        55.06887         0.25860
C         37.82720        16.04050         1.90369
C         36.66629        16.74027         1.88820
C         37.82524        18.69813         0.87330
C         36.55202        18.09336         1.38052
C         37.84139        20.10745         0.35701
C         36.59377        20.91003         0.55017
C         37.80960        22.99156         0.13407
C         36.59860        22.30371         0.06391
C         37.79553        24.47359         0.16659
C         36.47960        25.20154         0.03842
C         37.74510        27.31951        -0.68943
C         36.46959        26.66524        -0.20692
C         37.69064        28.78862        -0.40957
C         36.49066        29.44843        -0.57243
C         37.64713        31.63761        -0.41952
C         36.49169        30.89626        -0.60238
C         37.63944        33.07273        -0.37128
C         36.43674        33.76411        -0.17568
C         37.64390        35.96586        -0.16202
C         36.49168        35.18969         0.08761
C         37.60981        37.37787        -0.07182
C         36.37757        38.03880         0.22861
C         37.54257        40.29942         0.29243
C         36.30995        39.47529         0.43428
C         37.62318        41.60579         0.96420
C         36.36401        42.19077         1.45043
C         37.63790        44.39179         1.79602
C         36.31743        43.68889         1.68889
C         37.65867        45.91279         1.83805
C         36.36698        46.57109         1.55998
C         37.78346        48.73327         1.32853
C         36.44714        48.02486         1.49091
C         37.77992        50.02508         0.53429
C         36.57243        50.86775         0.86182
C         37.81087        52.87231         0.29810
C         36.58195        52.27606         0.63567
C         37.74424        54.17117        -0.38844
C         36.50050        54.97328        -0.36774
C         37.77107        56.89059        -1.28930
C         36.57122        56.28511        -0.86071
C         40.45715        14.77260         2.58586
C         40.39012        15.99757         1.99060
C         39.12965        16.58744         1.35794
C         40.38692        18.79225         1.02732
C         39.10801        18.12920         1.47401
C         40.44923        20.15309         0.52539
C         39.11803        20.88525         0.19601
C         40.33440        23.06929         0.18662
C         39.07867        22.33957         0.27297
C         40.33081        24.42582        -0.17440
C         39.08840        25.19876        -0.09362
C         40.23699        27.34739        -0.44221
C         39.06657        26.64877        -0.38150
C         40.25777        28.80162        -0.14364
C         38.93236        29.49525        -0.04150
C         40.21249        31.72318        -0.36389
C         38.92157        30.98337        -0.08696
C         40.09154        33.12969        -0.76573
C         38.89423        33.77428        -0.53234
C         40.14382        36.00849        -0.56322
C         38.90192        35.23436        -0.33588
C         40.03521        37.48182        -0.52843
C         38.85600        38.12157        -0.23348
C         40.09584        40.28557         0.30095
C         38.85224        39.60138        -0.06118
C         40.10402        41.61861         0.76581
C         38.83642        42.30295         1.04773
C         40.08580        44.38886         1.56699
C         38.87116        43.68225         1.45304
C         40.15916        45.81078         1.60625
C         38.96159        46.58589         1.56263
C         40.28050        48.64730         1.11615
C         39.03220        47.95850         1.30318
C         40.31727        50.05998         0.83481
C         39.08282        50.78019         0.65044
C         40.33027        52.89091         0.37649
C         39.04964        52.15190         0.41749
C         40.29772        54.30189        -0.14895
C         39.03524        54.84633        -0.75625
C         40.27349        56.77683        -1.66853
C         39.01045        56.25386        -1.21035
C         40.47425        58.09535        -2.10395
C         42.89624        14.85771         2.89266
C         41.70250        14.23737         3.08315
C         42.98415        16.08815         2.09445
C         41.65935        16.70765         1.69428
C         42.91835        18.96010         1.53427
C         41.60974        18.20514         1.59426
C         42.90677        20.33657         1.02747
C         41.57914        21.04500         1.03605
C         42.82627        23.13278         0.37880
C         41.59974        22.41688         0.40669
C         42.84896        24.54215         0.02672
C         41.58634        25.13758        -0.42957
C         42.76738        27.43661        -0.35458
C         41.53891        26.66855        -0.57989
C         42.73132        28.88383        -0.41487
C         41.50841        29.57609        -0.36005
C         42.65205        31.69650        -0.86370
C         41.48114        30.98372        -0.55582
C         42.54559        33.01840        -1.61490
C         41.27262        33.83875        -1.32409
C         42.56220        36.13820        -1.41715
C         41.28766        35.34449        -1.27750
C         42.58492        37.54789        -0.90474
C         41.34294        38.12500        -0.28899
C         42.64812        40.24482         0.19065
C         41.35167        39.52165         0.22461
C         42.61395        41.60269         0.82992
C         41.31913        42.22246         1.17643
C         42.61974        44.33648         1.97163
C         41.31165        43.58579         1.72358
C         42.62244        45.79692         1.81143
C         41.44196        46.50506         1.62591
C         42.72627        48.65421         1.38667
C         41.49337        47.94629         1.37436
C         42.79828        50.02716         0.98793
C         41.57485        50.72961         0.72431
C         42.81999        52.77851         0.10420
C         41.61741        52.13766         0.38036
C         42.83527        54.22237        -0.30467
C         41.54075        54.83015        -0.72209
C         43.31770        56.97063        -1.85910
C         41.39985        55.85752        -1.61679
C         43.00212        58.35010        -2.01821
C         41.70468        58.78959        -2.26177
C         45.52093        16.28767         2.25013
C         44.23653        16.91337         2.03198
C         45.43335        18.87855         1.02841
C         44.19388        18.21614         1.59131
C         45.37457        20.38597         0.99814
C         44.10849        21.03838         0.84108
C         45.30144        23.21776         0.73735
C         44.05917        22.46213         0.62305
C         45.28377        24.73160         0.50293
C         43.99177        25.33988         0.10955
C         45.19531        27.56076         0.01998
C         43.96012        26.75982        -0.13141
C         45.20526        28.95660        -0.45048
C         43.95199        29.61935        -0.56721
C         45.14777        31.71822        -1.02544
C         43.91150        31.02487        -0.81789
C         45.11806        33.23175        -1.00028
C         43.83366        33.86594        -1.55224
C         45.11556        36.09890        -1.21733
C         43.85209        35.37876        -1.53640
C         45.11948        37.45321        -0.78131
C         43.87368        38.16454        -0.48461
C         45.16128        40.01252         0.51854
C         43.88160        39.41026         0.08672
C         45.15204        41.41628         1.07845
C         43.87840        42.14497         1.39820
C         45.18673        44.33262         1.64799
C         43.92109        43.57947         1.83145
C         45.15516        45.69849         1.78196
C         43.91067        46.47043         2.24001
C         45.25049        48.75683         1.90928
C         43.93172        47.99900         1.95206
C         45.28101        50.12592         1.27348
C         44.06710        50.72206         0.85742
C         45.29338        52.73531         0.03017
C         44.09210        52.09552         0.31707
C         45.40803        54.08596        -0.64558
C         44.14386        54.92619        -0.57320
C         45.44687        57.02100        -0.62258
C         44.30089        56.33164        -1.11224
C         46.69295        16.98399         2.10546
C         47.89633        19.05950         1.45095
C         46.72063        18.32849         1.60466
C         47.84403        20.42195         0.95231
C         46.58946        21.10638         0.87929
C         47.78535        23.20640         0.36042
C         46.59363        22.51260         0.62548
C         47.74160        24.59523        -0.26624
C         46.51803        25.37967         0.08176
C         47.75644        27.56546        -0.36158
C         46.53836        26.82615         0.02317
C         47.70334        28.92992        -0.59136
C         46.42363        29.63092        -0.67815
C         47.58526        31.66911        -1.57062
C         46.36142        31.02756        -1.01741
C         47.55742        33.12994        -1.91642
C         46.30152        33.91607        -1.66898
C         47.54979        36.08291        -1.52639
C         46.34644        35.40095        -1.47375
C         47.54484        37.60283        -1.38603
C         46.34606        38.14652        -0.65189
C         47.62318        40.06025         0.30645
C         46.42375        39.42683        -0.01313
C         47.62378        41.39741         0.96233
C         46.38988        42.20906         1.04913
C         47.68627        44.27355         1.29171
C         46.41830        43.57020         1.34693
C         47.71917        45.71609         1.63891
C         46.42351        46.42773         1.88367
C         47.71817        48.43337         2.20672
C         46.46563        47.89532         1.92834
C         47.70342        50.49122         1.72666
C         46.51543        50.83119         1.06741
C         47.87010        52.78547         0.12858
C         46.58033        51.93187         0.01979
C         47.81291        54.26568         0.09950
C         46.60955        54.90357        -0.14636
C         46.51727        56.33343        -0.10418
C         50.33845        19.20396         1.53474
C         49.19905        18.58280         1.90626
C         50.27818        20.28802         0.48303
C         49.03465        21.12390         0.66979
C         50.29959        23.24678         0.29558
C         49.01515        22.50414         0.39754
C         50.28852        24.72465         0.04319
C         48.99561        25.43893        -0.13566
C         50.31474        27.56179        -0.19908
C         48.99890        26.79946        -0.30540
C         50.26109        28.95124        -0.79863
C         48.99016        29.75140        -0.57805
C         50.17140        31.74772        -1.74762
C         48.90065        30.97039        -1.48977
C         50.16024        33.23624        -1.75020
C         48.86306        33.88182        -2.05862
C         50.10646        36.13730        -1.84503
C         48.79997        35.39623        -1.91170
C         50.08248        37.58601        -1.45852
C         48.84965        38.08709        -0.76967
C         50.23056        40.02476         0.22339
C         48.90401        39.32699         0.06356
C         50.20816        41.45394         0.67787
C         48.93799        42.15921         1.06480
C         50.15020        44.38600         1.02568
C         48.89269        43.63591         1.06535
C         50.18110        45.79306         1.18941
C         48.88742        46.54558         1.13460
C         50.16552        48.66590         1.68020
C         48.97031        47.90757         1.78413
C         50.18346        50.12296         1.66329
C         49.01592        50.88140         1.37984
C         50.21386        53.05730         1.25703
C         49.11689        52.19787         0.71983
C         50.19115        54.46147         0.81731
C         49.05508        54.99570         0.30105
C         52.74435        20.36242         0.11282
C         51.55305        21.07605         0.29423
C         52.72514        23.12551        -0.34019
C         51.54498        22.46527         0.07197
C         52.64441        24.51972        -0.86047
C         51.49105        25.38575        -0.52727
C         52.66914        27.46164        -1.18475
C         51.50003        26.75294        -0.70595
C         52.69022        28.85955        -1.26766
C         51.42008        29.56957        -1.17883
C         52.69177        31.77102        -1.26293
C         51.45032        30.99972        -1.61250
C         52.62625        33.26671        -1.24623
C         51.35410        33.97229        -1.64437
C         52.63327        36.11635        -1.84530
C         51.39042        35.39478        -1.78518
C         52.63538        37.61972        -1.75525
C         51.38299        38.32339        -1.31220
C         52.68149        40.13658        -0.20453
C         51.46998        39.51647        -0.44262
C         52.69169        41.57908         0.17486
C         51.39714        42.29913         0.39577
C         52.59729        44.38411         0.92686
C         51.36599        43.69449         0.86918
C         52.60171        45.79834         1.07534
C         51.39762        46.52088         1.20822
C         52.61053        48.70810         1.26314
C         51.40823        47.98263         1.37306
C         52.64786        50.13357         1.41201
C         51.44595        50.81608         1.58680
C         52.74487        52.96832         1.88481
C         51.43776        52.29803         1.74590
C         53.91450        21.01763        -0.25559
C         55.20949        23.02901        -1.03416
C         53.92594        22.40121        -0.49140
C         55.19776        24.54360        -1.04148
C         53.91652        25.20710        -1.30451
C         55.19489        27.43982        -1.55753
C         53.87462        26.69033        -1.52737
C         55.16933        28.92227        -1.44686
C         53.93257        29.61043        -1.42681
C         55.19361        31.74934        -1.50449
C         53.98527        31.04258        -1.39009
C         55.29847        33.24226        -1.19428
C         53.91459        34.09631        -1.08980
C         55.12546        36.15935        -2.06323
C         53.85397        35.42696        -1.84262
C         55.19483        37.62514        -1.75523
C         53.92734        38.35263        -1.49538
C         55.15422        40.25492        -0.48882
C         53.95121        39.60368        -0.68313
C         55.27408        41.47842         0.35563
C         53.93558        42.20733         0.71289
C         54.91661        44.38824         1.53130
C         53.82490        43.64607         1.01513
C         55.08867        45.74049         1.31298
C         53.88710        46.50115         0.93941
C         55.20150        48.67743         1.27827
C         53.88726        48.00153         0.98023
C         55.24076        50.18145         1.33128
C         53.91552        50.93367         1.04842
C         53.89289        52.32384         1.63873
C         57.53969        23.20153        -0.13151
C         56.42064        22.49091        -0.30709
C         57.66787        24.58634        -0.64011
C         56.37831        25.29348        -0.93420
C         57.58414        27.49749        -0.87444
C         56.38725        26.68662        -1.14369
C         57.61687        28.81907        -1.56838
C         56.38009        29.63064        -1.55250
C         57.71443        31.70043        -1.97497
C         56.43512        31.04446        -1.65773
C         57.66903        33.16735        -2.31910
C         56.37653        33.89750        -2.07524
C         57.65511        36.10882        -1.62592
C         56.41258        35.40937        -2.10089
C         57.65527        37.59305        -1.50988
C         56.47693        38.26799        -1.38914
C         57.68108        40.51433        -1.10432
C         56.38949        39.73780        -1.16384
C         57.73210        41.79782        -0.38053
C         56.54906        42.25655         0.31376
C         57.62925        44.50146         0.56537
C         56.73004        43.40061         1.06248
C         57.66024        45.74729         1.44518
C         56.36536        46.38612         1.71930
C         57.63207        48.60670         2.01474
C         56.34805        47.90879         1.87052
C         57.54625        50.03078         2.23114
C         56.40691        50.75891         2.03375
C         60.12242        24.83714         0.30070
C         58.93174        25.36887        -0.40462
C         60.17281        27.57266        -0.65912
C         58.87167        26.86681        -0.47085
C         60.19387        28.87592        -1.30029
C         58.92008        29.49628        -1.76814
C         60.13675        31.35066        -2.69817
C         58.88229        30.94857        -2.09240
C         60.07649        33.61109        -3.02028
C         58.91890        34.01773        -2.41049
C         60.21767        36.17200        -1.82604
C         58.95959        35.37536        -1.79622
C         60.22045        37.53407        -1.46883
C         58.95564        38.30019        -1.54371
C         60.23941        40.43182        -0.84508
C         58.98702        39.80648        -1.34287
C         60.21267        41.76093        -0.36128
C         58.95603        42.44949        -0.20471
C         60.23297        44.53476         0.68484
C         58.97013        43.88247         0.21168
C         60.14340        45.82131         1.44612
C         58.84760        46.44743         1.68155
C         60.06190        48.46058         2.47788
C         58.81930        47.84565         2.10915
C         61.23218        25.61329         0.39154
C         61.29438        26.93507        -0.18393
C         61.36262        29.51341        -1.65519
C         61.31808        30.68075        -2.47337
C         61.30878        34.34847        -2.99709
C         61.39074        35.55539        -2.35655
C         61.40946        38.28929        -1.25424
C         61.41502        39.63415        -0.92061
C         61.39734        42.40686         0.17777
C         61.41472        43.65192         0.72406
C         61.29586        46.48141         1.81100
C         61.25031        47.78577         2.37787
O         39.87811        35.50099         0.78823
O         32.64437        37.47341        -1.31757
O         56.82373        40.57190        -2.29225
O         40.29453        54.06830         1.28730
O         31.22370        35.08526         0.92813
O         58.26373        35.44219        -0.47463
O         26.39113        25.61333         2.18288
O         52.46204        32.48547         0.00931
O         46.61171        33.42572        -2.99219
O         34.45623        35.13323         1.33124
O         30.25950        32.39783        -3.04846
O         54.59838        38.47495        -2.79796
O         55.83882        35.90592        -3.33757
O         58.01026        27.50035         0.54844
O         45.30063        24.17256         1.87521
O         27.17651        33.35832        -3.23438
O         44.00314        34.60480        -2.78608
O         30.08511        41.74876        -2.06453
O         33.14692        50.44190         2.05382
O         44.43161        48.72674         3.13606
O         39.59926        29.00068         1.17057
O         24.39572        28.75413        -1.82304
O         52.01386        42.28193        -0.94102
O         34.08073        41.80344         2.22953
O         51.91579        38.48743        -2.67631
O         41.84257        43.80470         3.08324
O         60.15904        32.36889        -3.65387
O         42.45820        15.99255         0.70309
O         50.90754        31.22817        -2.94059
O         42.14476        18.83598         2.82503
O         35.36433        32.61585        -1.97294
O         29.35615        39.66009         0.75218
O         40.01564        20.38081        -0.84012
O         47.30931        45.91836         3.00940
O         56.65198        33.35904        -3.38747
O         28.57587        37.97586        -2.55346
O         42.43311        56.10134        -2.51965
O         37.72219        45.11996         3.06489
O         36.08104        20.94797         1.96025
O         31.68193        48.72805        -1.87377
O         31.66629        46.09979        -1.89647
O         23.29937        39.67856         0.81438
O         42.70877        41.43029        -0.66176
O         36.30830        42.72045         2.80729
O         23.92908        34.55489        -2.95637
O         35.43045        23.66570        -1.58864
O         45.91349        27.38745         1.27258
O         38.53882        24.98274         1.30518
O         30.05524        23.36438        -1.18491
O         42.45124        37.27442        -2.33427
O         37.10205        48.72167         2.61198
O         33.57362        38.52475         1.98551
O         49.93864        37.21251        -2.85794
O         48.09379        30.81292        -2.67586
O         33.89739        21.04136        -0.94630
O         50.42743        52.80621         2.68235
O         58.67126        24.73147        -1.70758
O         37.75681        18.97449        -0.55703
O         54.52130        27.01336        -2.79482
O         38.37680        53.97363        -1.73712
O         41.47542        38.37281         1.16012
O         38.05591        40.30733        -1.08718
O         43.54534        55.00859         0.75611
O         36.31992        26.14337         1.14535
O         39.66504        31.57234         1.01008
O         53.04272        24.52277        -2.28561
O         47.66075        49.67101         2.85787
O         59.06402        39.25000        -2.68086
O         24.55675        48.91087        -1.44906
O         41.62507        25.79013        -1.75123
O         50.46946        24.21696         1.42513
O         55.67719        49.44260         0.12781
O         45.25576        40.23712         1.96493
O         48.80573        34.73349        -3.23322
O         50.52763        40.38044         1.61670
O         58.27845        28.71216        -2.87093
O         55.94310        43.66852         2.17254
O         53.94719        47.31387        -0.31149
O         43.92431        42.48825         2.80696
O         32.42697        31.14472        -2.86211
O         35.01045        48.46987        -0.43639
O         59.72342        44.73418        -0.70840
O         56.12491        47.03985         3.02548
O         54.63793        41.35635         1.66563
O         28.68591        44.23937        -2.41391
O         48.35869        41.52004         2.23340
O         48.92195        37.96631         0.67590
O         29.27933        47.48748        -2.47153
O         48.95001        52.23134        -0.73630
O         40.88695        34.65745        -2.49446
O         25.73968        40.32375         1.12459
H         24.87919        40.26867         1.60721
O         45.43457        18.47962        -0.40317
H         45.34414        17.50238        -0.43298
O         49.09655        30.28486         0.77574
H         49.42977        29.55558         1.35080
O         42.42770        32.56983        -2.98437
H         42.61138        33.35218        -3.55574
O         50.52117        27.78115         1.24001
H         50.48925        26.90490         1.68421
O         50.10103        19.59543        -0.80022
H         49.24907        19.11011        -0.76019
O         57.02874        44.93136        -0.69398
H         57.76474        45.26061        -1.26008
O         55.30761        22.61997        -2.42915
H         54.57460        23.07016        -2.90783
O         43.89857        46.30576         3.67749
H         44.26508        47.13338         4.07218
O         48.58338        46.77183        -0.28749
H         49.38647        47.14040        -0.71423
O         39.02219        18.41354         2.90710
H         39.71586        19.06346         3.15666
O         41.19604        21.27535         2.44298
H         41.97161        21.64916         2.91342
O         34.41775        43.72715        -0.84147
H         34.30583        44.63098        -1.20940
O         27.45986        26.83854        -2.18468
H         28.17141        27.20639        -2.75895
O         47.63416        24.28981        -1.71862
H         47.66917        25.13685        -2.21313
O         46.62611        51.31075        -1.30817
H         47.58475        51.22266        -1.53660
O         37.62727        27.15908        -2.15075
H         38.40422        27.57634        -2.57997
O         32.23133        44.45413         2.03673
H         32.58877        43.64789         2.46956
O         45.63709        53.82855        -2.06105
H         46.09434        52.95487        -2.13865
O         47.45139        38.14903        -2.73054
H         48.18916        37.75512        -3.26155
O         53.82916        51.11839        -0.38573
H         54.34489        50.38420        -0.80008
O         37.67721        49.59684        -0.85784
H         37.55291        50.39210        -1.41781
O         53.85846        34.58578         0.28795
H         53.35234        33.91014         0.80275
O         29.43739        51.09176        -2.52986
H         29.78435        50.22182        -2.82268
O         45.19480        33.60320         0.40939
H         44.69899        32.94794         0.94442
O         32.42687        53.12307         2.60903
H         32.47000        52.20001         2.94673
O         39.20646        16.27694        -0.05075
H         39.40088        15.32306        -0.15591
O         22.69822        45.05606        -2.07981
H         22.67826        44.21680        -2.58656
O         30.09847        28.27136        -2.93122
H         30.95851        27.91408        -3.24051
O         55.89962        33.24064         0.12292
H         55.43304        33.92643         0.66344
H         22.97362        23.99393         1.96662
H         20.83407        25.23366         1.82407
H         20.78441        27.54924         0.97109
H         20.87340        29.48088         0.82956
H         20.77397        31.72626        -0.11714
H         20.62379        33.44702        -1.33122
H         20.61340        35.78800        -1.52287
H         20.64108        37.84661        -1.46402
H         20.68694        40.25707        -1.10149
H         20.79781        42.05220         0.03670
H         20.79780        44.49249        -0.07676
H         21.25704        46.11320         1.05714
H         23.28505        49.89078         0.86980
H         21.51049        48.46211         1.82156
H         24.56076        22.88661         1.70191
H         24.92086        50.93717         0.36080
H         26.61367        21.63862         1.54455
H         27.11065        52.05042         0.25635
H         30.38975        19.59400         2.11107
H         28.33735        20.85780         2.11322
H         30.46622        54.17239         0.19984
H         28.62202        53.21173        -1.01276
H         32.00919        18.53610         2.12584
H         32.02284        55.15346         0.84661
H         34.02004        17.22868         2.09364
H         34.01485        56.12960        -0.03155
H         37.80441        15.00249         2.26897
H         35.75626        16.25112         2.26698
H         37.71705        57.91557        -1.68367
H         35.65330        56.88682        -0.91555
H         39.54601        14.18583         2.77102
H         39.57671        58.72911        -2.17982
H         43.80083        14.46652         3.37972
H         41.66072        13.31053         3.67274
H         43.78984        59.10648        -1.88482
H         41.59344        59.87112        -2.44050
H         45.55373        15.24565         2.59629
H         45.49525        58.11612        -0.71397
H         47.63940        16.49084         2.36843
H         47.36692        56.90937         0.28611
H         51.31317        18.84771         1.89904
H         49.23922        17.72833         2.59718
H         51.08377        55.08661         0.95910
H         49.07298        56.05772         0.01960
H         52.74682        19.27005         0.22817
H         52.74855        54.00502         2.25136
H         54.82055        20.42219        -0.42733
H         54.84367        52.86678         1.73535
H         58.40827        22.74259         0.36304
H         56.38919        21.45653         0.06353
H         58.42542        50.55148         2.63790
H         56.39832        51.81888         2.32134
H         60.12795        23.80465         0.67671
H         60.05929        49.48830         2.86542
H         62.13960        25.21681         0.86902
H         62.27686        27.42478        -0.23300
H         62.34075        29.08179        -1.40369
H         62.23704        31.03688        -2.95617
H         62.18700        33.90737        -3.48546
H         62.34359        36.10101        -2.34898
H         62.37550        37.76517        -1.25992
H         62.38516        40.09219        -0.68268
H         62.33002        41.82589         0.20237
H         62.34161        44.01956         1.18746
H         62.27672        46.01533         1.64420
H         62.18842        48.26937         2.68219
