         280
 CSIRO Nanostructure Databank - Neutral Graphene Oxide Data Set
C         30.77924        32.31972        -1.97711
C         30.68841        33.38659        -1.35748
C         30.56391        36.44083        -0.26180
C         30.60374        37.51257         0.39249
C         30.43215        40.43205         1.48093
C         30.39811        41.67012         1.30382
C         33.31817        29.60987        -2.44357
C         32.26181        30.25767        -2.66132
C         33.17505        32.17239        -1.34993
C         31.61506        31.14279        -1.68118
C         32.87894        33.17523        -0.24436
C         31.58204        33.99192        -0.35778
C         32.75495        36.02496         0.85603
C         31.52577        35.38709         0.16389
C         32.97094        37.56918         0.74015
C         31.64341        38.31712         0.91286
C         32.86599        40.39165         1.35213
C         31.61542        39.62280         1.32974
C         32.84379        41.92785         1.23779
C         31.39451        42.61725         1.00577
C         32.59956        44.33733         0.10109
C         31.42356        43.86309         0.44221
C         35.76519        27.79725        -1.94155
C         35.59195        29.14550        -1.42654
C         34.47402        29.97851        -1.68860
C         35.39357        31.76320        -0.27861
C         34.37035        31.28497        -1.08267
C         35.41924        33.24140         0.08088
C         34.03784        33.74566         0.53428
C         35.21143        35.81921         1.69272
C         33.94731        35.14807         1.12710
C         35.33558        37.33713         1.50331
C         34.05943        38.18760         1.71313
C         35.28249        40.57366         1.18384
C         34.09117        39.74555         1.41663
C         35.22529        41.85287         0.55191
C         33.85613        42.35872         0.14841
C         35.09354        44.70216        -0.35439
C         33.84327        43.90859        -0.13637
C         35.12964        45.65030        -1.58308
C         38.01953        27.41346        -1.05688
C         36.79878        27.13958        -1.70783
C         37.84682        28.69707        -0.20671
C         36.64452        29.56943        -0.59940
C         37.79883        31.51916         0.63297
C         36.53585        30.88734         0.04348
C         37.76383        32.96381         0.99334
C         36.58877        33.66584         0.95243
C         37.82940        35.84028         1.25626
C         36.53668        35.08520         1.42261
C         37.85403        37.32035         1.19925
C         36.58626        37.86088         1.69459
C         37.74247        40.51353         0.78726
C         36.58211        40.08671         1.43218
C         37.67730        41.82820         0.21757
C         36.40940        42.51725         0.21160
C         37.66738        44.55801        -0.77264
C         36.36080        43.82919        -0.48236
C         37.54521        46.02077        -1.19995
C         36.24435        46.18096        -1.76462
C         40.55678        24.78920        -1.59880
C         39.52043        25.47715        -1.65407
C         40.46557        27.36075        -0.56683
C         39.23009        26.76896        -1.11850
C         40.41844        28.69870        -0.11940
C         39.14957        29.52093        -0.34424
C         40.27837        31.50116         0.65630
C         39.10319        30.83881         0.42088
C         40.31867        32.93056         0.90942
C         39.07864        33.63459         1.41945
C         40.19878        35.78540         0.36568
C         39.00211        35.04237         0.82529
C         40.02866        37.29255        -0.07161
C         38.92561        38.05537         0.73222
C         40.19654        40.31027         0.34960
C         38.82763        39.53856         0.27653
C         40.07599        41.60615        -0.51095
C         38.88071        42.47507        -0.17494
C         40.16313        44.55138        -0.07116
C         38.94171        43.89983        -0.33235
C         40.23167        45.95919         0.24154
C         38.32892        46.96058        -0.59330
C         40.10334        48.66123        -0.58782
C         38.99364        48.20318        -0.87645
C         43.03585        24.65172        -0.83800
C         41.78431        25.24224        -1.01497
C         42.86254        27.24980         0.04308
C         41.69919        26.61775        -0.51673
C         42.81756        28.63237         0.41532
C         41.59886        29.33102         0.33107
C         42.81283        31.50686         0.56472
C         41.55654        30.73445         0.87522
C         42.77059        32.97451         0.62131
C         41.48545        33.64621         0.76493
C         42.69029        35.85438         0.25934
C         41.48043        35.16528         0.92082
C         42.65634        37.38556         0.50173
C         41.46495        38.03928        -0.23729
C         42.69811        40.19291        -0.09359
C         41.46914        39.53616         0.02821
C         42.70141        41.64868        -0.39294
C         41.40638        42.38002        -0.52132
C         42.64691        44.68361        -0.38972
C         41.44420        43.76640         0.10926
C         42.67992        45.98577         0.48590
C         41.36025        46.75539         0.29183
C         42.61080        48.81211         0.02224
C         41.22716        48.31758         0.36009
C         43.99914        25.25820        -0.26474
C         45.20180        27.15546         1.05805
C         44.10846        26.54862         0.22065
C         45.28102        28.68484         0.85771
C         44.07933        29.35044         0.66544
C         45.21812        31.59736         0.93886
C         43.99824        30.81045         0.58150
C         45.20722        33.00761         0.38637
C         43.93542        33.71312         0.63523
C         45.24532        35.94951         0.51255
C         43.97119        35.19116         0.71039
C         45.18494        37.40396         0.24334
C         43.98678        38.08250         0.16405
C         45.23155        40.24258         0.00232
C         43.96969        39.51887         0.01721
C         45.23934        41.75337         0.22105
C         44.00916        42.43128        -0.34553
C         45.29745        44.73781        -0.52348
C         43.99175        43.92894        -0.45345
C         45.32227        46.13661         0.13302
C         44.02277        46.81153         0.37617
C         43.66453        48.21009         0.23371
C         47.67821        27.23316         0.82703
C         46.59455        26.66043         0.80109
C         48.04012        28.65717         1.11475
C         46.63559        29.38359         0.61301
C         47.59944        31.70677         0.97415
C         46.53101        30.87913         0.86654
C         47.74657        32.93581         0.08951
C         46.47067        33.76632         0.14055
C         47.72949        35.91174         0.27348
C         46.53964        35.24109         0.30925
C         47.73024        37.39440        -0.09300
C         46.49188        38.12391         0.47567
C         47.72715        40.24686        -0.30283
C         46.44180        39.57935         0.09221
C         47.75966        41.75611        -0.19206
C         46.53438        42.47682        -0.15456
C         47.78952        44.55166        -0.52395
C         46.54667        43.87808        -0.31144
C         47.59419        45.97884        -0.51837
C         46.63398        46.71933        -0.27005
C         50.45006        28.72907        -0.21878
C         49.28727        29.21715         0.38771
C         50.18612        31.52528        -0.32069
C         49.44744        30.63165         0.45102
C         50.30269        32.94026         0.00008
C         49.03899        33.66827         0.38604
C         50.37240        35.87742         0.43569
C         49.01166        35.16636         0.45173
C         50.31795        37.40161         0.03305
C         49.00188        38.15684         0.25096
C         50.26959        40.30038         0.09870
C         48.99041        39.51465         0.12575
C         50.23196        41.61315        -0.67515
C         48.97318        42.42204        -0.46268
C         50.28888        44.39549        -0.90301
C         48.97976        43.83454        -0.64953
C         51.67384        29.09814        -0.39122
C         52.82668        31.45776        -0.43115
C         51.98497        30.39115        -0.87488
C         52.57560        32.69743        -0.46259
C         51.52768        33.61201        -0.15042
C         52.66184        36.00692        -0.19450
C         51.47802        35.10377        -0.44149
C         52.65334        37.20864         0.08392
C         51.61645        38.12593         0.67641
C         52.72706        40.35461        -0.27386
C         51.58848        39.59178         0.28316
C         52.71888        41.54697        -0.61407
C         51.77555        42.62233        -0.24890
C         51.37877        43.79709        -1.03348
O         37.40559        35.34192         2.57646
O         36.86859        30.78411         1.51502
O         50.81803        31.02445        -1.47666
O         45.61408        33.31697        -0.99177
O         44.91222        46.38894         1.46759
O         36.68643        39.07125         2.36390
O         39.41969        34.96464        -0.56265
O         44.16053        43.05907        -1.64147
O         39.47587        37.23805        -1.36313
O         47.76603        40.02368        -1.84090
O         36.98294        43.73596        -1.78545
O         50.98946        40.39427         1.37956
O         44.65899        35.70092         1.89894
O         38.97595        46.48018         0.57244
O         30.97490        34.29442         0.91526
O         48.95164        34.31110         1.67999
O         32.90244        35.37323         2.13323
O         42.10736        42.03528        -1.72434
O         48.77608        31.21101         1.53023
O         33.18403        32.72261         1.10376
O         42.64709        35.55437        -1.14686
H         42.25071        36.32520        -1.63320
O         44.87178        26.92982         2.43483
H         44.73930        25.96887         2.57205
O         33.34779        32.88979        -2.54908
H         33.57459        32.26396        -3.26878
O         46.65847        38.12469         1.93692
H         46.24337        37.31089         2.30029
O         41.58785        30.57173         2.33836
H         41.50639        31.46270         2.74214
O         40.35621        40.74898         1.71990
H         40.73765        40.01756         2.25012
O         45.37496        45.15795        -1.91979
H         45.28535        44.35168        -2.47653
O         51.85625        42.92905         1.08248
H         52.02414        42.10631         1.59540
O         41.56469        43.39187         1.49400
H         41.61437        44.20052         2.05688
O         37.68492        28.25365         1.14522
H         37.34309        29.01714         1.67513
O         47.90891        32.40620        -1.24530
H         47.01878        32.41672        -1.67631
O         40.85719        48.70400         1.65829
H         40.66955        49.66474         1.67207
O         39.79643        41.22776        -1.86792
H         40.64839        41.25516        -2.36747
O         33.44823        37.79586        -0.59966
H         32.69391        37.71771        -1.22252
O         41.50105        35.40244         2.34809
H         40.81695        34.81919         2.76472
O         47.63091        37.39650        -1.53828
H         48.55168        37.44233        -1.89895
O         33.31573        42.47005         2.47316
H         32.81126        42.07079         3.21220
O         42.64515        45.61815         1.88310
H         42.81844        46.42116         2.41955
O         42.33084        45.10915        -1.71747
H         42.60245        44.38837        -2.33012
O         33.48988        41.70433        -1.06813
H         34.17938        41.86771        -1.74533
O         48.14746        28.84771         2.50436
H         48.99934        28.48885         2.82503
O         51.65935        38.05592         2.07687
H         51.47219        38.94539         2.44877
O         35.28930        45.49741         0.81232
H         34.45910        45.97739         1.01513
O         42.47130        37.66520         1.90112
H         43.07450        37.07538         2.41015
O         39.27331        33.63982         2.85174
H         38.50390        34.12349         3.24819
O         46.64366        40.72501        -2.40489
H         46.10094        39.99523        -2.79278
O         31.18124        30.45655        -0.58016
H         30.58435        31.01033        -0.03756
O         45.05261        31.84428         2.38692
H         45.01118        30.97272         2.83685
O         41.76460        37.97441        -1.65204
H         40.86330        37.77919        -2.07139
O         35.05363        35.73578         3.14964
H         34.64069        34.87542         3.37718
O         45.09648        41.90563         1.66435
H         45.78722        41.36867         2.10793
O         38.32713        39.44165        -1.06027
H         38.68261        38.58821        -1.47971
O         50.41675        37.57622        -1.39702
H         51.01108        36.89142        -1.79360
O         50.87098        35.82847         1.76637
H         50.46684        35.05696         2.22719
O         39.17022        29.92651        -1.74751
H         40.01937        30.38130        -1.93098
O         35.64601        33.99041        -1.15618
H         36.54422        33.79364        -1.49858
O         33.60185        38.06693         3.05794
H         33.91458        37.19339         3.40478
O         50.36996        41.30524        -2.03825
H         50.12940        42.08695        -2.57706
O         46.79862        29.30941        -0.83526
H         45.98685        29.65005        -1.26627
O         51.13184        35.14659        -1.83778
H         51.77302        34.59353        -2.33355
