         260
 CSIRO Nanostructure Databank - Neutral Graphene Oxide Data Set
C         30.55050        31.44963        -0.75529
C         30.71218        32.55977        -1.29598
C         29.71715        35.59088        -0.53152
C         30.46947        36.50297        -0.92888
C         30.92550        40.42268        -3.23776
C         30.86963        41.66355        -3.03203
C         32.45809        29.15982         1.56670
C         31.48730        29.61935         0.90472
C         32.74466        31.46938         0.19865
C         31.47400        30.79234         0.12543
C         32.94934        32.77240        -0.52050
C         31.89372        33.41024        -1.41074
C         33.02524        35.69412        -0.94171
C         32.08615        34.86309        -1.81148
C         32.83833        37.13305        -1.03560
C         31.47727        37.43414        -1.19778
C         33.06483        40.19129        -2.11136
C         31.64611        39.57755        -2.33592
C         32.90629        41.72283        -1.81514
C         31.84714        42.46839        -2.36031
C         32.80945        44.47919        -1.54884
C         31.84769        43.86168        -2.03866
C         35.24327        27.94971         2.79685
C         34.90826        29.25189         2.38382
C         33.74657        29.73209         1.69313
C         35.18606        31.55980         0.74926
C         33.83733        30.94840         0.93885
C         35.26650        32.96243         0.23609
C         33.92796        33.66946         0.21372
C         35.08625        35.92233         0.50210
C         34.02013        35.11163        -0.21266
C         35.10066        37.42669         0.11905
C         33.87713        38.08027        -0.55162
C         35.31928        40.21085        -0.97671
C         33.97044        39.51796        -1.04253
C         35.37859        41.75564        -1.10281
C         33.98947        42.39773        -1.04366
C         35.25041        44.68241        -0.67294
C         33.96846        43.94758        -0.85439
C         35.35706        46.10293        -0.28626
C         37.56693        27.42825         2.25198
C         36.24769        27.18980         2.71362
C         37.92993        28.79664         2.33790
C         36.10732        30.06047         2.40564
C         37.67564        31.68067         1.26232
C         36.35580        31.07648         1.50127
C         37.73083        33.00036         0.78143
C         36.53249        33.74291         0.35505
C         37.73544        36.02023         0.51265
C         36.47102        35.24693         0.31443
C         37.73121        37.34468         0.20327
C         36.44095        38.10469         0.07782
C         37.68489        40.28462         0.04725
C         36.52557        39.49723        -0.47929
C         37.73353        41.75459        -0.06103
C         36.35692        42.39671        -0.04378
C         37.50532        44.66424         0.63222
C         36.47748        43.91511        -0.24868
C         37.75066        46.11797         0.12208
C         36.41957        46.70628        -0.10039
C         41.01960        24.37684         2.45311
C         39.85581        24.85540         2.29844
C         40.76819        26.92238         1.58262
C         39.58340        26.15624         1.84156
C         40.69360        28.29947         1.08373
C         38.78094        29.49121         1.45750
C         40.19591        31.47105         0.77359
C         38.88801        30.88654         1.27766
C         40.28080        32.97759         1.05112
C         38.97986        33.75979         1.00261
C         40.28388        36.02937         0.92630
C         38.97617        35.26270         0.88934
C         40.25039        37.46445         0.49394
C         39.02437        38.04120        -0.20727
C         40.21098        40.36398        -0.05844
C         38.97603        39.52875         0.11035
C         40.17739        41.78305         0.41957
C         38.79826        42.35398         0.86616
C         40.16108        44.60346         1.01491
C         38.82995        43.90421         0.88930
C         40.28127        46.10815         0.83430
C         39.05392        46.81581         0.26630
C         40.40547        48.85863         0.40942
C         39.34311        48.25298         0.24911
C         43.60659        24.50564         2.03588
C         42.24660        24.97095         2.15148
C         43.25040        27.17791         1.41050
C         42.05921        26.34809         1.77526
C         43.08138        28.65499         1.13341
C         41.69877        29.22761         1.06351
C         42.84040        31.47649         0.65639
C         41.51821        30.69017         0.68426
C         42.84175        33.01069         0.67693
C         41.57570        33.74930         1.04362
C         42.76262        35.93782         0.22314
C         41.66100        35.31072         1.11533
C         42.81445        37.43356         0.15166
C         41.54256        38.21358         0.26671
C         42.74693        40.38454         0.09161
C         41.50931        39.61967        -0.34706
C         42.67801        41.64112         0.71445
C         41.45866        42.37104         0.87638
C         42.75148        44.54719         1.36145
C         41.44333        43.80446         1.22540
C         42.86835        45.90163         0.64603
C         41.62012        46.79382         0.78426
C         42.98290        48.79010         0.99505
C         41.77560        48.27998         0.23002
C         44.45472        25.14305         1.37121
C         45.12857        27.03625        -0.22513
C         44.44003        26.44836         0.81199
C         44.72228        28.38177        -0.64217
C         43.97193        29.24481         0.09541
C         45.17375        31.49420        -0.58314
C         44.05954        30.73909         0.08671
C         45.04128        32.98033        -0.68954
C         43.98368        33.75715         0.05358
C         45.10279        35.93285        -0.54410
C         43.87106        35.23920        -0.18933
C         45.28923        37.42322        -0.37873
C         43.95621        38.15468        -0.57270
C         45.26065        40.13999         0.50876
C         44.01362        39.63644        -0.14285
C         45.24266        41.49642         1.15330
C         43.94111        42.23209         1.28496
C         45.42469        44.41301         0.54210
C         44.00144        43.71226         1.61386
C         45.36649        45.91890         0.95680
C         44.19717        46.60953         1.01586
C         43.94193        48.00744         1.12756
C         47.36456        27.43147        -1.24814
C         46.41658        26.76170        -0.81116
C         47.67192        28.81469        -1.50315
C         46.46925        29.54785        -1.49812
C         47.59743        31.68875        -1.33283
C         46.32527        30.92190        -1.13902
C         47.55409        33.16743        -1.34717
C         46.21210        33.79904        -1.16149
C         47.51872        35.92562        -0.79019
C         46.24512        35.23259        -0.82985
C         47.40690        37.35840        -0.32186
C         46.30613        37.70808         0.74085
C         47.67889        39.92933         1.19924
C         46.36515        39.23248         1.00357
C         47.81288        41.41287         0.87900
C         46.54828        42.22628         1.11423
C         47.93785        44.24700         1.25091
C         46.63652        43.58920         1.04052
C         47.79703        45.68927         1.26816
C         46.70692        46.29346         1.22580
C         50.21052        29.12418        -1.87272
C         48.90403        29.51732        -1.66712
C         50.02906        31.85101        -2.24783
C         48.78731        30.99496        -1.94207
C         49.97568        33.34403        -2.11062
C         48.60329        34.02269        -2.04036
C         49.94160        36.10163        -1.34210
C         48.65147        35.37313        -1.32508
C         50.00805        37.45359        -0.70419
C         48.76877        37.95539         0.00122
C         50.28390        39.82387         1.01280
C         48.92545        39.13485         0.91995
C         50.29450        41.19844         1.67710
C         49.03827        42.02089         1.56531
C         50.39341        43.96929         1.82320
C         49.05982        43.52575         1.56034
C         51.28853        29.78255        -2.08060
C         52.42130        32.11581        -2.31663
C         51.39293        31.14735        -2.25165
C         52.31139        33.36216        -2.38309
C         51.10441        34.12985        -2.25981
C         52.11082        36.54792        -2.21210
C         50.94820        35.62136        -2.41084
C         52.12051        37.68504        -1.74981
C         51.05130        38.53615        -1.13701
C         52.40344        40.50057        -0.01710
C         51.38284        39.43231         0.03795
C         52.59193        41.43686         0.75410
C         51.91634        41.99991         1.93319
C         51.49505        43.42228         1.91787
O         46.85500        39.56933         2.33487
O         49.44595        41.36827         2.82381
O         45.30153        28.85576        -1.82541
O         40.70981        31.00233        -0.50832
O         36.67016        34.50954        -0.92862
O         43.96723        33.48321         1.48149
O         43.88133        31.04438         1.54455
O         31.81235        35.23980        -2.93717
O         51.33736        38.87889         1.36171
O         37.16629        29.60244         3.22708
O         36.29405        39.59981        -1.91775
O         50.56760        36.29146        -0.03510
O         43.62579        28.20776         2.40235
O         38.77362        34.60266         2.19156
O         41.94942        44.35515         2.53147
O         45.09870        40.29052        -0.93421
O         39.45965        28.66744         0.56035
O         40.08013        37.12851         1.88665
O         35.43639        31.85471        -0.67831
O         45.15937        33.41770        -2.09586
O         46.38399        37.88769        -1.33845
O         38.65024        46.22508        -1.00167
O         44.51101        41.48356         2.42579
O         40.08184        41.46496        -1.03080
O         36.31327        44.34885        -1.61834
O         33.59986        43.03644         0.19665
O         39.31313        44.34950         2.19627
O         47.99898        32.47668        -0.14683
O         33.03316        32.67957        -1.96280
O         48.92099        37.80732         1.46830
O         45.09767        44.13897        -0.66017
O         38.21388        39.73358         1.32237
O         42.45043        38.11008         1.40218
O         40.87479        46.73560         2.01291
O         31.02074        38.63029        -1.76305
O         35.59349        38.15803         1.27926
O         41.01593        33.21723         2.28061
O         33.34554        39.21962         0.22120
O         49.11379        31.37804        -3.30702
O         38.26881        26.50555         1.51927
O         42.09449        48.21751        -1.13682
H         42.17402        49.12455        -1.49859
O         48.09267        41.48274        -0.54616
H         47.24594        41.48326        -1.04511
O         44.45177        43.93049         2.88768
H         44.76991        43.06388         3.25335
O         33.73233        40.09193        -3.37602
H         34.56352        40.62721        -3.33831
O         42.91888        45.55475        -0.74870
H         43.01050        46.37909        -1.27878
O         35.81003        42.01334        -2.45086
H         36.72673        41.67457        -2.55312
O         38.49771        41.97040         2.22191
H         38.97955        42.58988         2.81929
O         41.56298        39.45561        -1.77616
H         41.33900        40.32649        -2.17425
O         50.46990        39.37077        -2.13056
H         50.44919        38.89848        -2.98871
O         46.19829        36.96249         1.91502
H         46.76235        37.38239         2.60186
O         36.84104        44.75663         1.89799
H         37.51920        44.92335         2.59273
O         39.20680        37.81714        -1.61739
H         38.48203        38.25047        -2.11605
O         50.37625        35.88669        -3.70553
H         51.00163        35.56950        -4.39175
O         34.82480        35.86041         1.92463
H         35.12572        36.71706         2.31825
O         33.42676        33.65910         1.58145
H         33.71244        34.49126         2.03453
O         42.10082        35.57185         2.44727
H         41.92136        36.52195         2.64119
O         35.78616        42.11100         1.24360
H         36.51180        42.10832         1.91461
O         48.12928        34.24441        -3.38233
H         48.75229        34.87137        -3.82222
O         52.45096        41.55840         3.11202
H         51.90602        41.86375         3.86493
O         43.69036        38.07639        -1.97773
H         44.42715        38.53489        -2.43663
