         272
 CSIRO Nanostructure Databank - Neutral Graphene Oxide Data Set
C        -11.22279         0.71821        -0.26189
C         -9.87767         1.39701        -0.19927
C         -8.98238         0.79040         0.89254
C         -7.72764         1.54334         1.17635
C         -6.46506         0.80897         1.58841
C         -5.14393         1.54271         1.58593
C         -3.84964         0.76140         1.76507
C         -2.61315         1.32894         1.12305
C         -1.25996         0.74262         1.40411
C         -0.11844         1.43246         1.07188
C          1.16351         0.71470         0.77156
C          2.40644         1.47463         0.41359
C          3.75456         0.73588         0.21245
C          5.04855         1.50012         0.62108
C          6.21625         0.77481        -0.03570
C          7.46052         1.48851        -0.44962
C          8.72805         0.73068        -0.33777
C          9.99484         1.55055        -0.16557
C         11.05190         0.71922         0.52861
C         -9.96038         2.89237        -0.09097
C         -8.84882         3.61532         0.18853
C         -7.53930         2.86455         0.41817
C         -6.38197         3.72770         0.96576
C         -5.07914         3.01235         1.16980
C         -3.88217         3.51687         0.42197
C         -2.71064         2.59871         0.33678
C         -1.43094         3.16267        -0.22760
C         -0.17186         2.84249         0.51925
C          1.08583         3.64073         0.27119
C          2.39915         2.96517         0.77346
C          3.68191         3.70264         0.35336
C          4.99906         2.98103         0.24480
C          6.17303         3.66171        -0.43796
C          7.56648         3.00499        -0.58245
C          8.63410         3.63039         0.30368
C          9.74729         2.89434         0.52502
C         -8.84368         5.07435         0.12374
C         -7.66631         5.73420         0.01814
C         -6.35514         5.11475         0.39713
C         -5.17040         5.43582        -0.47971
C         -3.92722         4.62957        -0.37701
C         -2.85883         5.00108        -1.42787
C         -1.50111         4.33098        -1.14708
C         -0.18943         5.04108        -1.52840
C          1.13017         4.69221        -0.85390
C          2.40826         5.54534        -1.02550
C          3.56477         5.12723        -0.14720
C          4.84745         5.87973        -0.13317
C          6.14623         5.13919        -0.27419
C          7.38624         5.89570         0.00539
C          8.54626         5.12125         0.63947
C         -7.16052         7.04430         0.57293
C         -6.25556         7.79718        -0.44315
C         -5.06219         6.89294        -0.78288
C         -3.61362         7.39138        -0.68526
C         -2.74969         6.54914        -1.61963
C         -1.49484         7.17075        -2.15313
C         -0.44209         6.17647        -2.45964
C          1.67971         7.95173        -2.29943
C          2.62994         6.87032        -1.74811
C          3.90985         7.60583        -1.53944
C          4.96495         7.19824        -0.78990
C          6.11946         7.99203        -0.41766
C          7.31407         7.27062        -0.01295
C         -5.81335         9.16927        -0.00549
C         -4.60965         9.67839        -0.33032
C         -3.53398         8.88252        -0.92420
C         -2.47623         9.45174        -1.53608
C         -1.23106         8.74440        -2.02109
C         -0.10566         9.16315        -1.08807
C          1.23930         8.98882        -1.30597
C          2.24611         9.69182        -0.53780
C          3.59169         9.63391        -0.89118
C          4.75438        10.08303        -0.19047
C          5.96625         9.38017        -0.16973
C        -11.30662        -0.60908        -0.11850
C        -10.08123        -1.40686         0.16743
C         -8.93425        -0.72096         0.86496
C         -7.54447        -1.29117         0.61185
C         -6.46589        -0.71460         1.54860
C         -5.19145        -1.49622         1.79133
C         -3.87338        -0.73801         1.97246
C         -2.54898        -1.54135         2.09401
C         -1.23070        -0.70268         1.82608
C          0.08121        -1.43509         1.65548
C          1.38663        -0.66727         1.39036
C          2.49405        -1.46527         0.62601
C          3.83362        -0.71151         0.83723
C          5.00971        -1.41778         0.19590
C          6.35643        -0.70137         0.33445
C          7.43866        -1.40404        -0.51546
C          8.74095        -0.62062        -0.38812
C         10.04105        -1.39906        -0.31927
C         11.05397        -0.62108         0.49810
C         -9.76128        -2.53209        -0.71670
C         -8.53936        -3.16522        -0.69392
C         -7.53604        -2.82205         0.39778
C         -6.10871        -3.32299         0.15012
C         -5.19680        -3.02314         1.40660
C         -3.82054        -3.65650         1.17202
C         -2.52795        -2.94721         1.44450
C         -1.24470        -3.52275         0.88579
C          0.06091        -2.84541         1.12954
C          1.33013        -3.66192         1.20986
C          2.61509        -2.96068         0.93340
C          3.77217        -3.66057         0.67955
C          5.01509        -2.91235         0.30551
C          6.36651        -3.52131         0.54123
C          7.62997        -2.81638         0.09195
C          8.71899        -3.59733        -0.59185
C          9.72795        -2.81008         0.21318
C         -8.30664        -4.32147        -1.48931
C         -7.24584        -5.17799        -1.19300
C         -6.40270        -4.83003         0.02995
C         -5.13957        -5.68412         0.09675
C         -3.84485        -5.02562         0.52815
C         -2.52523        -5.66035         0.18696
C         -1.23179        -4.99968         0.53455
C         -0.07377        -5.91359         1.01374
C          1.28332        -5.16085         1.11572
C          2.58458        -5.91478         0.87059
C          3.84118        -5.13132         0.58924
C          4.96991        -5.76259         0.10288
C          6.06317        -5.03891        -0.71278
C          7.43219        -5.68889        -0.83163
C          8.66467        -4.91270        -0.90690
C         -7.13806        -6.42445        -1.83453
C         -6.04265        -7.29646        -1.60185
C         -5.02052        -6.87770        -0.76141
C         -3.71161        -7.60575        -0.90388
C         -2.60785        -7.15113         0.03378
C         -1.33714        -7.93256        -0.03023
C         -0.04128        -7.17152         0.13092
C          1.23242        -7.89415        -0.13900
C          2.52539        -7.34033         0.40228
C          3.79464        -8.04551         0.00298
C          5.07256        -7.25512         0.02648
C          6.29804        -7.88447        -0.59824
C          7.47311        -7.04117        -0.92350
C         -5.92785        -8.61212        -2.24255
C         -4.95750        -9.48856        -1.91225
C         -3.88319        -9.14301        -0.89762
C         -2.52554        -9.74422        -1.23416
C         -1.35542        -9.18349        -0.84815
C         -0.04810        -9.72703        -1.38875
C          1.19769        -9.38695        -0.54924
C          2.42695        -9.71074        -1.34955
C          3.72468        -9.32626        -0.85729
C          4.95308        -9.74147        -1.56684
C          6.13671        -9.12828        -1.38574
O         -5.38931         5.95477        -1.84828
O         -6.19696        -1.30273         2.83049
O         -3.13493         7.09265         0.60238
O          0.75543         4.10837        -2.13210
O         -7.31805        -5.03408         1.17281
O          3.91477         5.99367         1.00259
O          6.07578        -7.91498         0.86055
O         -3.09044        -3.87116         2.42122
O          5.27326         1.43012         2.03437
H          4.89154         2.25018         2.43553
O         -7.03460         7.99483        -1.64251
H         -6.92445         7.18566        -2.19326
O         -0.97360         9.22056        -3.33722
H         -0.08235         8.92453        -3.64557
O         -5.47865        -2.82109        -1.02056
H         -5.92315        -1.97534        -1.28225
O          4.23237        -0.77259         2.21132
H          3.59901        -0.27569         2.78013
O         -5.71927        -3.71172         2.53492
H         -5.01387        -3.74983         3.21706
O         -8.81882         1.49296         2.14755
O          4.64042         3.72572         1.45522
O         -2.66331         6.94733        -3.01476
O         -2.21867        -7.98406         1.14887
O          2.77227         5.60665        -2.45023
O          6.81124        -0.81132         1.68999
H          6.13594        -0.38260         2.27111
O          8.39332         5.22805         2.06603
H          8.35535         6.17650         2.30603
O         -4.58497        -5.92735         1.41825
O         -1.66951        -5.11499        -0.85799
O          6.46874         1.00248        -1.43917
O         -3.78897         0.21693         3.09450
O         -0.37780        -1.07193         2.97225
O         -5.93005         1.36724         2.80196
O          0.22048         3.95986         1.39438
O          0.12645        -9.19157        -2.71128
H          0.25815        -8.21817        -2.61939
O         -4.31814        -9.60794         0.38692
H         -3.64580        -9.32408         1.05099
O          0.65215        -6.99066        -1.14718
O          2.14560        -1.44417        -0.76973
H          2.88742        -1.86944        -1.26698
O         -1.40879         2.97993        -1.66644
O          3.87620         8.90096        -2.08305
O         -9.82279        -1.54781         1.62826
O          1.36784        -4.48907         2.42143
O         10.57886        -1.56399        -1.65039
H         10.72331        -0.66644        -2.02240
O         10.45294         1.88182        -1.50420
H          9.71050         2.43317        -1.89725
O          3.89106         0.57969        -1.20514
H          3.00808         0.33042        -1.56936
O         -7.05397         2.48954        -0.87024
O         -5.74641         3.75522         2.25927
O         -3.26284        -7.23145        -2.23975
H         -2.52234        -7.82232        -2.49991
O          1.48390         1.04238        -0.62298
O          4.81910        -2.22008        -0.97849
O         -0.58679        -2.78384        -0.18655
O          5.63742        -4.48017        -1.76831
O          8.12112         3.26985        -1.85169
O          7.08187        -1.55108        -1.87963
H          6.79194        -0.66638        -2.21199
O          5.92915         4.47908        -1.60332
O          0.01432         6.02676        -3.66031
H          0.63275         5.24866        -3.68473
O         -2.94250         1.30370        -0.32823
O          8.62157        -2.66038         1.21585
O          1.88544        -0.31236         2.70079
H          1.11748        -0.30535         3.32683
O          1.16642       -10.16455         0.66204
H          2.05369       -10.08735         1.08792
O         -6.28858         6.21984         1.44305
O         -7.92838        -3.68926         1.50791
O          1.41290         7.98160        -3.48865
O          2.36312         2.95596         2.20822
H          2.41521         3.87985         2.53338
O          3.86600        -9.34489         0.63025
O         -2.50517        -1.86850         3.49335
H         -2.73074        -1.05788         4.00259
O         -7.16262        -0.77012        -0.70347
H         -7.87003        -0.15526        -1.06168
O         -0.41125        -6.36284         2.32806
H          0.01594        -5.76673         2.98479
O          2.62231        -7.02875         1.82653
O          6.49515        -4.07595         1.76557
H          7.44096        -4.01140         2.04344
O         -3.28807         4.45388        -2.67861
H         -4.16218         4.85749        -2.89084
O         -9.15916         1.04986        -1.43819
H         -8.38737         1.70530        -1.50755
H         11.85234        -1.18508         1.00688
H         11.84227         1.25486         1.07845
H         10.59701         3.34030         1.06803
H          9.51688         5.61481         0.34258
H          8.18795         7.86587         0.29886
H          6.82512         9.88845         0.29814
H          4.68406        11.00588         0.40524
H          1.92010        10.30576         0.31328
H         -0.39029         9.86543        -0.28767
H         -2.45484        10.54431        -1.67273
H         -4.38767        10.73366        -0.10508
H         -6.57173         9.81364         0.46486
H         -7.86024         7.70105         1.13883
H         -9.80608         5.60848         0.11816
H        -10.90574         3.39383        -0.35071
H        -12.11859         1.32552        -0.46030
H        -12.26912        -1.13856        -0.18496
H        -10.51326        -2.83570        -1.46145
H         -9.01992        -4.58227        -2.28612
H         -7.90197        -6.70616        -2.57522
H         -6.71009        -8.89656        -2.96220
H         -4.95281       -10.49771        -2.35150
H         -2.49878       -10.67020        -1.83132
H         -0.11839       -10.83686        -1.48950
H          2.32642       -10.10424        -2.37073
H          4.87654       -10.60487        -2.24375
H          7.01924        -9.48058        -1.94076
H          8.42270        -7.55515        -1.14312
H          9.59478        -5.46878        -1.10449
H         10.60686        -3.35993         0.62334
