         486
 CSIRO Nanostructure Databank - Neutral Graphene Oxide Data Set
C         37.70627        49.80600        -1.74693
C         36.51045        50.47420        -1.91773
C         37.62512        52.60083        -1.58886
C         36.47136        51.88408        -1.85235
C         40.24637        48.44957        -1.10799
C         40.16880        49.83172        -1.41222
C         38.92174        50.51367        -1.51228
C         40.04241        52.67632        -0.97957
C         38.87058        51.94988        -1.38901
C         40.03485        54.03555        -0.69227
C         42.72559        48.44465        -1.16218
C         41.43272        47.78440        -0.92801
C         42.73646        49.91177        -1.44478
C         41.41712        50.67949        -1.60726
C         42.57689        52.72401        -0.65450
C         41.30855        51.89584        -0.68884
C         42.47963        54.16327        -0.40097
C         41.21019        54.75025        -0.38093
C         45.23105        45.70588        -0.48796
C         44.03960        46.37769        -0.77021
C         45.12214        48.52274        -0.33339
C         43.97608        47.77182        -0.71508
C         45.11385        49.96976        -0.42741
C         44.02912        50.70731        -1.21857
C         44.96434        52.85128        -0.09666
C         43.78622        52.09309        -0.66149
C         44.99595        54.26275        -0.65076
C         43.68101        54.95922        -0.35320
C         44.91411        57.06797        -0.23388
C         43.69750        56.33847        -0.22642
C         47.62756        44.24461         0.43765
C         47.70137        45.70345         0.04918
C         46.36239        46.41018        -0.06783
C         47.50181        48.55374         0.46031
C         46.30761        47.82084         0.05213
C         47.40662        50.05724         0.63350
C         46.24081        50.70400        -0.07371
C         47.46532        52.87830         0.00745
C         46.28110        52.12882        -0.17368
C         47.43266        54.32882        -0.02681
C         46.22989        55.02132        -0.21707
C         47.43423        57.24641        -0.27579
C         46.15758        56.44439        -0.20482
C         47.40050        58.58668         0.40696
C         50.01173        44.34001         1.01215
C         48.74358        43.62442         0.86085
C         50.00036        45.74285         1.04670
C         48.64264        46.41442         1.02314
C         49.90099        48.63867         1.15506
C         48.66760        47.90401         0.77594
C         49.90471        50.12288         0.96263
C         48.73649        50.71022         0.19962
C         49.90375        52.92457         0.43817
C         48.71129        52.21861         0.24981
C         49.89804        54.35951         0.38180
C         48.67193        55.06161         0.15895
C         49.87578        57.19551         0.29367
C         48.66576        56.46794         0.12586
C         49.84598        58.62216         0.47074
C         48.56395        59.24625         0.65762
C         52.52462        41.55990         0.90795
C         51.30851        42.24021         0.90210
C         52.47569        44.35124         1.55622
C         51.23632        43.62062         1.11014
C         52.46682        45.82274         1.22526
C         51.22105        46.49393         1.14231
C         52.39958        48.64893         1.24384
C         51.20663        47.92719         1.18014
C         52.37077        50.13425         1.53543
C         51.17794        50.86059         0.94554
C         52.37064        53.00956         0.89687
C         51.15770        52.22826         0.73539
C         52.37887        54.38270         0.69599
C         51.12518        55.08653         0.45784
C         52.37279        57.25899         0.12108
C         51.10858        56.48547         0.35797
C         52.29900        58.67365         0.62896
C         51.07961        59.34838         0.66625
C         52.22196        61.53250         0.73681
C         51.08020        60.79920         0.72408
C         55.06029        40.12105         0.73878
C         55.00911        41.53232         0.89971
C         53.76172        42.23855         1.01843
C         54.96438        44.38074         1.23029
C         53.76836        43.65755         1.20463
C         54.94974        45.84705         1.27890
C         53.68248        46.54249         1.22421
C         54.89433        48.70545         1.20928
C         53.66409        47.97507         1.22242
C         54.87377        50.15976         1.18589
C         53.66573        50.83529         1.23761
C         54.91939        53.06109         1.21251
C         53.60363        52.30109         1.30557
C         54.87456        54.47743         0.83780
C         53.62562        55.14592         0.72280
C         54.84446        57.27338         0.53324
C         53.62647        56.53925         0.52935
C         54.83528        58.69931         0.58390
C         53.55737        59.36925         0.88726
C         54.80071        61.61327         0.64449
C         53.53372        60.90451         0.94549
C         54.81359        63.01197         0.55545
C         57.49822        40.13119         0.78969
C         56.25897        39.44511         0.68548
C         57.47411        41.55190         0.91967
C         56.23211        42.25574         0.97263
C         57.43804        44.39313         1.18511
C         56.21772        43.68252         1.12602
C         57.43934        45.85614         1.56499
C         56.13777        46.57179         1.29287
C         57.37159        48.72925         1.06864
C         56.13673        48.01029         1.20570
C         57.36351        50.15830         0.94903
C         56.12928        50.88615         1.04683
C         57.35292        53.01514         0.71574
C         56.15236        52.29122         0.98962
C         57.33399        54.43656         0.58298
C         56.09396        55.16146         0.63598
C         57.31436        57.30330         0.37416
C         56.09290        56.58039         0.51649
C         57.27583        58.74135         0.31230
C         56.03329        59.43848         0.48757
C         57.24264        61.60692         0.34964
C         56.01898        60.88833         0.50533
C         57.24160        63.03977         0.39110
C         56.01012        63.71395         0.44426
C         60.02840        37.34918         0.73178
C         58.82439        38.01539         0.66436
C         59.97305        40.15759         0.93863
C         58.75473        39.42884         0.79293
C         59.94002        41.58575         0.98902
C         58.69992        42.28069         0.98697
C         59.90721        44.44280         1.01480
C         58.66803        43.70960         1.08529
C         59.86809        45.88651         0.90164
C         58.65409        46.58948         1.05380
C         59.83859        48.69718         0.70864
C         58.61897        48.00080         0.93835
C         59.84883        50.16037         0.81258
C         58.57295        50.89077         0.77726
C         59.79157        53.02903         0.28858
C         58.58446        52.29607         0.60975
C         59.75031        54.42220         0.14814
C         58.54051        55.15529         0.32963
C         59.73652        57.28691        -0.18228
C         58.53772        56.58516         0.24253
C         59.80270        58.79667        -0.05130
C         58.46528        59.48220         0.09975
C         59.72360        61.59496        -0.05714
C         58.46183        60.88080         0.12583
C         59.78722        62.98563         0.54574
C         58.49464        63.77014         0.43748
C         59.82926        65.81233         0.80517
C         58.57863        65.13215         0.61624
C         62.62255        35.93471         1.05137
C         62.48622        37.34734         1.17471
C         61.24593        38.04491         0.95949
C         62.44451        40.21470         1.18824
C         61.22120        39.46697         1.04295
C         62.39638        41.63443         1.09462
C         61.16986        42.31559         1.02440
C         62.34848        44.47400         0.66788
C         61.12881        43.75913         0.95283
C         62.28764        45.86921         0.37575
C         61.06538        46.58577         0.56901
C         62.24764        48.70374         0.05156
C         61.04933        48.00704         0.47410
C         62.25020        50.10509        -0.09602
C         61.12504        50.89917         0.41236
C         62.11262        52.92147        -0.58911
C         61.02953        52.31476         0.02959
C         62.00184        54.35777        -0.94613
C         61.03949        55.16849        -0.10350
C         61.90233        57.23849        -1.45632
C         60.85800        56.59662        -0.55734
C         61.97370        58.76866        -1.35744
C         60.64956        59.52058        -1.11596
C         62.10357        61.68903        -0.73787
C         60.80333        60.97641        -0.62860
C         62.19978        62.97931         0.03274
C         60.94206        63.80970        -0.04416
C         62.32472        65.84422         0.77514
C         61.03890        65.19454         0.57753
C         62.44658        67.18110         1.07628
C         64.95445        35.98800         1.77083
C         63.82737        35.28311         1.26121
C         64.73614        37.34782         2.03652
C         63.63403        38.10291         1.56274
C         64.93693        40.25583         1.17876
C         63.68554        39.53833         1.42239
C         64.88133        41.63553         0.79798
C         63.67539        42.42586         1.22845
C         64.72142        44.43808         0.07158
C         63.57967        43.79510         0.60743
C         64.64144        45.80633        -0.33202
C         63.44779        46.53940        -0.09390
C         64.54158        48.61351        -0.86538
C         63.41126        47.95714        -0.32233
C         64.51541        50.02895        -1.04385
C         63.35319        50.77580        -0.68831
C         64.44528        52.83645        -1.47516
C         63.30839        52.18924        -0.92090
C         64.42696        54.28405        -1.78356
C         63.18334        55.07586        -1.53666
C         64.48472        57.20079        -1.28042
C         63.26472        56.54958        -1.38659
C         64.54310        58.64277        -1.03451
C         63.30588        59.44125        -1.24111
C         64.65122        61.45370        -0.44201
C         63.37384        60.91372        -0.95395
C         64.72079        62.93007        -0.27147
C         63.51899        63.60471         0.32274
C         64.84026        65.82965         0.44344
C         63.61204        65.03192         0.87680
C         64.90685        67.20535         1.01665
C         63.71997        67.82725         1.27421
C         67.56368        33.31730         2.19770
C         66.35668        33.99210         2.16247
C         67.51368        36.10163         1.72459
C         66.28163        35.38471         1.93860
C         67.54341        37.49981         1.37599
C         66.52198        38.38818         1.73518
C         67.26703        40.12721         0.16014
C         66.20010        39.59831         1.08112
C         67.21305        41.61545        -0.02308
C         66.00414        42.31496         0.24411
C         67.05036        44.33786        -0.74846
C         65.94456        43.70717        -0.11478
C         66.94163        45.70256        -1.16768
C         65.76778        46.44155        -0.95692
C         66.80310        48.51824        -1.84114
C         65.70789        47.85815        -1.26969
C         66.87836        49.96016        -1.80688
C         65.68059        50.72085        -1.47590
C         66.93583        52.83679        -2.04646
C         65.64773        52.11710        -1.65397
C         66.96177        54.25450        -1.54756
C         65.76316        55.03934        -1.70174
C         66.96945        57.08304        -1.07443
C         65.75080        56.46717        -1.31855
C         67.00149        58.54868        -0.88127
C         65.72272        59.27087        -0.69164
C         67.01205        61.37409         0.23384
C         65.78313        60.69507        -0.37689
C         67.30876        62.77584        -0.39069
C         66.03428        63.62779        -0.32321
C         67.38410        65.62580         0.58684
C         66.08871        65.08662         0.07890
C         67.44551        67.05885         0.98634
C         66.21742        67.97520         0.90368
C         67.61399        69.47331         2.37330
C         66.38060        69.03411         1.97132
C         70.13702        31.93205         2.41395
C         70.06440        33.27608         1.99786
C         68.78868        33.99254         1.96105
C         70.03021        36.09575         1.46689
C         68.74772        35.37489         1.68944
C         70.02976        37.54366         1.07059
C         68.69483        38.06797         0.57323
C         69.81540        40.22433        -0.08221
C         68.64236        39.60936         0.65833
C         69.60679        41.53618        -0.75636
C         68.29793        42.23818        -0.63935
C         69.42067        44.19996        -1.62222
C         68.24799        43.59731        -1.02531
C         69.44776        45.70875        -1.75213
C         68.05399        46.29246        -1.93474
C         69.23080        48.46397        -2.71598
C         67.96426        47.74758        -2.32291
C         69.27479        49.97522        -2.52780
C         68.07558        50.63190        -1.99087
C         69.43618        52.77251        -1.72643
C         68.13241        52.05163        -1.49512
C         69.46255        54.15862        -1.46038
C         68.20456        54.85425        -0.96588
C         69.44305        57.01829        -0.94949
C         68.22884        56.36805        -1.08426
C         69.54141        58.40164        -0.52641
C         68.29576        59.20986        -0.52245
C         69.62073        61.15210         0.45099
C         68.28671        60.50917         0.22407
C         69.70535        62.63549         0.41241
C         68.53282        63.43423         0.25345
C         69.87927        65.44053         0.74294
C         68.62222        64.81864         0.43348
C         69.98013        66.82697         1.07143
C         68.79319        67.75842         0.94902
C         70.11852        69.48875         2.20593
C         68.84249        68.91510         1.91746
C         70.24216        70.76713         2.81948
C         72.51187        31.85575         1.94282
C         71.33805        31.22965         2.39268
C         72.47615        33.17825         1.53360
C         71.26567        33.92436         1.56271
C         72.27498        35.89720         0.39840
C         71.23943        35.30548         1.18580
C         72.25961        37.19101        -0.04475
C         71.29291        38.21500         0.49026
C         71.94174        39.96900        -1.28192
C         70.97740        39.38654        -0.43546
C         71.77864        41.18670        -1.92532
C         70.48195        41.95014        -1.91645
C         71.76452        44.17261        -2.34142
C         70.55653        43.47490        -1.93853
C         71.76177        45.48210        -2.68005
C         70.44712        46.21112        -2.83475
C         71.67960        48.45514        -2.73191
C         70.51870        47.73314        -2.73231
C         71.71690        49.88131        -2.56324
C         70.58473        50.64024        -2.39165
C         71.80251        52.82340        -2.24799
C         70.61101        52.08178        -2.10785
C         71.82434        54.18962        -1.99778
C         70.66788        54.86831        -1.58070
C         71.90353        56.81402        -0.53949
C         70.73771        56.36358        -1.38546
C         71.91806        58.07113        -0.04600
C         70.75821        58.93927        -0.15189
C         72.05857        61.12764        -0.21103
C         70.92887        60.34327         0.40330
C         72.12381        62.46028        -0.01450
C         70.97067        63.24380         0.41636
C         72.32394        65.27264         0.89758
C         71.06898        64.65365         0.65042
C         72.39689        66.59255         1.27863
C         71.22774        67.40136         1.36907
C         72.55640        69.42928         2.00448
C         71.31486        68.79016         1.82839
C         72.64475        70.69945         2.56886
C         71.48132        71.36015         2.99591
O         53.60241        60.10335         2.16539
O         65.07829        54.70988        -3.01202
O         67.29596        66.05839         2.02117
O         67.78691        59.31514        -1.89720
O         62.82978        62.76891         1.32821
O         60.79838        50.65496         1.82476
O         62.76763        61.72295        -2.03075
O         62.67537        59.22329        -2.56138
O         65.35717        65.87609        -0.91896
O         42.88337        48.97833        -2.57045
O         49.64925        49.55639         2.31962
O         67.63515        46.67098        -3.28780
O         54.26044        52.83199         2.50947
O         70.16907        37.23950         2.47132
O         70.27016        41.51116         0.55100
O         69.04357        49.36071        -3.85249
O         62.05427        54.60832        -2.36628
O         68.84709        60.51773         1.56994
O         65.21613        63.50603        -1.53597
O         65.69173        38.01727         2.80909
O         63.86557        64.88295         2.30403
H         63.32093        64.12273         2.61429
O         69.75041        41.56529        -3.12732
H         70.19770        41.98112        -3.89430
O         71.35560        60.16409         1.78741
H         70.55019        59.92805         2.30161
O         61.39179        56.99554        -2.79746
H         61.96219        57.51141        -3.41056
O         67.04340        52.85322        -3.49147
H         66.32860        53.44988        -3.82081
O         61.72826        55.27568         1.19559
H         61.11473        55.70791         1.82717
O         71.99641        38.83524         1.61246
H         71.64482        38.40001         2.42798
O         68.89184        68.34225        -0.40663
H         69.71956        68.86890        -0.43951
O         69.98628        45.86808        -4.15795
H         69.08683        46.26510        -4.27566
O         52.41755        44.31224         3.04094
H         53.23282        44.74731         3.37268
O         70.98407        56.90579        -2.73094
H         70.91317        57.88262        -2.67418
O         66.62704        61.63660         1.59960
H         67.39959        61.40519         2.17160
O         67.66756        62.60241        -1.77121
H         66.84890        62.74088        -2.30434
O         44.71797        52.98141         1.34198
H         44.99466        52.14450         1.77437
O         59.92340        59.52299        -2.35111
H         60.55383        59.78229        -3.05779
O         67.93295        51.97997        -0.03645
H         68.65037        51.42655         0.33849
O         52.21082        50.24392         2.99335
H         51.28162        49.97161         3.19190
O         60.02548        62.78505         1.96247
H         60.05141        63.66795         2.38860
O         48.06640        46.24772         2.35190
H         48.67446        46.66027         3.00057
O         63.85291        42.67483         2.67854
H         64.00639        41.80395         3.10428
O         69.89559        46.24608        -0.47287
H         70.67328        45.72386        -0.18248
O         60.64282        63.98320        -1.44964
H         61.39741        64.43249        -1.88430
O         45.09604        54.16364        -2.09937
H         45.17777        55.07249        -2.45754
O         41.16896        51.36280         0.66595
H         41.12632        52.12386         1.28287
O         68.66653        37.61012        -0.79606
H         67.92815        38.07095        -1.26366
O         48.97719        50.33584        -1.18665
H         48.28814        50.76319        -1.73922
O         48.31707        45.79335        -1.26564
H         47.71730        45.36790        -1.91289
O         52.48669        57.37944        -1.35955
H         51.63500        57.74049        -1.68649
O         44.61825        50.92814        -2.53430
H         44.36177        50.15039        -3.08260
O         41.39616        51.18011        -2.96371
H         41.70135        50.44452        -3.53948
O         68.13923        54.63639         0.49518
H         68.01306        53.65898         0.61834
O         66.17906        68.64592        -0.38140
H         67.11247        68.81034        -0.65950
O         68.75307        39.95749         2.04764
H         69.30509        40.77255         2.09800
O         47.60204        57.53414        -1.72248
H         48.39717        58.10250        -1.80837
O         60.53496        58.99752         1.20396
H         59.89534        58.97242         1.94618
O         57.56721        45.87011         3.03831
H         58.43858        45.47680         3.25930
O         47.14544        50.33409         2.03380
H         47.91324        49.98149         2.54919
O         67.01235        39.58053        -1.18289
H         66.20157        40.01014        -1.52959
H         37.72668        48.71151        -1.84278
H         35.58905        49.91179        -2.12312
H         37.56547        53.69628        -1.53103
H         35.51939        52.41110        -2.00518
H         39.31257        47.89966        -0.91865
H         39.10221        54.61214        -0.77265
H         41.41968        46.74166        -0.58327
H         41.11543        55.83249        -0.21600
H         45.26300        44.61488        -0.61136
H         43.16473        45.79903        -1.09582
H         44.85259        58.16493        -0.21726
H         42.76201        56.90457        -0.10943
H         46.69088        43.67767         0.33834
H         46.43980        59.08675         0.59314
H         48.70646        42.55564         1.11537
H         48.52190        60.26524         1.06822
H         52.50645        40.47497         0.74448
H         50.39657        41.66671         0.68606
H         52.16109        62.62129         0.59890
H         50.12274        61.32551         0.60640
H         54.13190        39.53975         0.66867
H         53.87605        63.57794         0.63667
H         56.24014        38.35328         0.57252
H         55.97752        64.81133         0.43560
H         60.03409        36.25468         0.64230
H         57.90794        37.42889         0.51788
H         59.79058        66.85590         1.14956
H         57.66752        65.74468         0.67413
H         61.76294        35.34055         0.71327
H         61.55209        67.81954         1.12076
H         63.90183        34.20765         1.04723
H         63.70275        68.88854         1.56112
H         67.55522        32.23815         2.39822
H         65.42896        33.42888         2.33629
H         67.65480        70.29477         3.10472
H         65.48497        69.52903         2.37383
H         69.23657        31.41560         2.77206
H         69.34018        71.31125         3.13025
H         73.45973        31.30030         1.92771
H         71.36668        30.18377         2.72782
H         73.40801        33.66543         1.21614
H         73.09885        35.24988         0.06222
H         73.09408        37.54223        -0.66917
H         72.89298        39.43715        -1.43792
H         72.57965        41.53034        -2.59728
H         72.71071        43.61125        -2.34827
H         72.69491        45.95849        -3.01279
H         72.64832        47.93953        -2.79349
H         72.70960        50.34844        -2.50024
H         72.72457        52.32726        -2.57916
H         72.75877        54.74988        -2.14009
H         72.78004        56.15905        -0.42948
H         72.79230        58.45402         0.49996
H         72.91066        60.58127        -0.64074
H         73.01889        63.01051        -0.34035
H         73.24482        64.67619         0.84473
H         73.37945        67.01890         1.51946
H         73.48349        68.92911         1.69335
H         73.62611        71.17758         2.69137
H         71.55331        72.35575         3.45522
