         205
 CSIRO Nanostructure Databank - Neutral Graphene Oxide Data Set
C         30.53657        31.66018        -1.19179
C         30.62097        32.90859        -1.30008
C         30.56676        36.00339        -1.25483
C         30.52176        37.24095        -1.09858
C         30.45931        40.30349        -0.53139
C         30.34708        41.53688        -0.31215
C         32.85341        28.92832        -0.27902
C         31.77106        29.46246        -0.61038
C         32.88589        31.60083        -0.66058
C         31.64387        30.85783        -0.83630
C         32.91439        33.03287        -0.80751
C         31.72563        33.76463        -1.13070
C         32.90944        35.93463        -0.93776
C         31.71865        35.18101        -1.14711
C         32.87629        37.37460        -0.81996
C         31.63523        38.08533        -0.84849
C         32.80677        40.23523        -0.46344
C         31.59341        39.47648        -0.61932
C         32.73251        41.63654        -0.19953
C         31.49571        42.34581        -0.14036
C         32.71798        44.37156         0.42033
C         31.68103        43.72727         0.20510
C         35.48179        27.43839         0.49901
C         35.32861        28.82750         0.21546
C         34.13700        29.49683        -0.10807
C         35.33622        31.64516        -0.16385
C         34.11118        30.92129        -0.31932
C         35.33652        33.08204        -0.27886
C         34.12795        33.78027        -0.59730
C         35.34764        35.93591        -0.54105
C         34.13823        35.20750        -0.72315
C         35.40255        37.41486        -0.92308
C         34.08443        38.14332        -0.70397
C         35.36178        40.30338        -0.88580
C         34.06249        39.53411        -0.59591
C         35.31305        41.79687        -0.51097
C         34.00830        42.42128        -0.12135
C         35.27797        44.46276         0.69029
C         34.01538        43.67028         0.77773
C         35.38832        45.79862         1.15351
C         37.85402        27.39736         0.81028
C         36.53559        26.85388         0.81000
C         37.82440        28.82729         0.49807
C         36.57798        29.52578         0.27124
C         37.78505        31.68190         0.22718
C         36.55898        30.94926         0.10504
C         37.77236        33.11109         0.18978
C         36.52947        33.82054        -0.04116
C         37.69192        36.01986         0.25558
C         36.50044        35.24704        -0.14657
C         37.75912        37.46893         0.01737
C         36.58526        38.18478        -0.34903
C         37.77878        40.30195         0.01726
C         36.58472        39.58119        -0.34090
C         37.81236        41.71985         0.13859
C         36.64427        42.55747        -0.32266
C         37.75632        44.56142         0.71706
C         36.52580        43.86583         0.45728
C         37.77253        45.93539         1.14010
C         36.45984        46.43688         1.28415
C         40.24246        24.90151         2.21108
C         39.21436        25.47183         1.77490
C         40.35419        27.35513         0.94205
C         39.02034        26.73607         1.17949
C         40.32336        28.85009         0.54985
C         39.03256        29.55443         0.49032
C         40.25726        31.70283         0.40972
C         39.02322        30.98291         0.39635
C         40.24307        33.12274         0.33336
C         39.00204        33.80634         0.29842
C         40.25475        36.01391         0.32579
C         38.99928        35.26663         0.46961
C         40.23543        37.41438         0.29875
C         38.98317        38.14277         0.21016
C         40.23045        40.26595         0.36236
C         38.99533        39.56833         0.20238
C         40.21866        41.65995         0.54043
C         39.00783        42.40116         0.45803
C         40.19871        44.55531         0.93759
C         39.01052        43.85833         0.67271
C         40.24369        45.95533         1.25099
C         38.98727        46.62391         1.38229
C         40.20900        48.59639         2.06449
C         39.15865        47.96340         1.81188
C         42.81983        24.98832         2.53832
C         41.55234        25.45930         2.12747
C         42.79611        27.54806         1.47883
C         41.59460        26.78368         1.53776
C         42.78308        28.94755         1.04259
C         41.56150        29.61637         0.73568
C         42.73716        31.75509         0.48675
C         41.51791        31.01835         0.56455
C         42.72924        33.17063         0.28631
C         41.48333        33.86623         0.29654
C         42.71424        35.99590         0.10418
C         41.48125        35.28460         0.23927
C         42.71570        37.42011         0.09198
C         41.48002        38.13557         0.23384
C         42.73667        40.24210         0.26031
C         41.48584        39.54294         0.30346
C         42.76955        41.65548         0.46660
C         41.49920        42.33748         0.82033
C         42.72845        44.58924         0.77262
C         41.47652        43.81407         1.01453
C         42.74887        45.97036         1.30503
C         41.50309        46.64551         1.51859
C         42.80701        48.55116         2.16618
C         41.50906        48.03404         1.96104
C         43.86884        25.66577         2.39573
C         45.26630        27.70894         1.89490
C         44.05397        26.98125         1.92376
C         45.24748        29.13174         1.48437
C         43.97776        29.70116         1.00294
C         45.19414        31.76069         0.28177
C         43.97886        31.07137         0.59832
C         45.19127        33.13066        -0.01972
C         43.95505        33.86836         0.08372
C         45.13827        36.01236        -0.35206
C         43.94158        35.29043        -0.03817
C         45.14398        37.40599        -0.40882
C         43.93841        38.12075        -0.10757
C         45.19177        40.26409        -0.05201
C         43.94755        39.54801        -0.00044
C         45.21515        41.65129         0.25011
C         43.97961        42.34261         0.46853
C         45.28084        44.47287         0.92714
C         44.00527        43.82520         0.56470
C         45.24769        45.82604         1.36020
C         44.01815        46.56324         1.52387
C         43.86112        47.89076         1.98140
C         47.65481        27.84892         1.73257
C         46.58303        27.28322         2.10493
C         47.82717        29.06296         1.05826
C         46.55258        29.82582         1.07827
C         47.71042        31.70915        -0.13727
C         46.42965        30.92848         0.04637
C         47.61323        33.06410        -0.56301
C         46.39876        33.78283        -0.47726
C         47.57597        35.99416        -1.14157
C         46.31796        35.22923        -0.80696
C         47.64085        37.46832        -0.94217
C         46.30505        38.20110        -1.01724
C         47.60568        40.29896        -0.43390
C         46.39735        39.60829        -0.44924
C         47.67269        41.64843         0.05047
C         46.46971        42.33864         0.35459
C         47.75506        44.30315         1.11339
C         46.48829        43.71783         0.80255
C         47.61673        45.63630         1.56389
C         46.55161        46.28984         1.66622
C         50.26050        29.10331         0.38965
C         48.95578        29.64062         0.44226
C         50.19005        31.65274        -0.46843
C         48.94545        31.00526        -0.07569
C         50.14557        33.01637        -0.89302
C         48.84895        33.69484        -1.07797
C         50.12356        35.93309        -1.17298
C         48.85526        35.23019        -1.29896
C         50.13609        37.39775        -0.75602
C         48.82090        38.14045        -0.93214
C         50.14240        40.38352        -0.87347
C         48.79542        39.66804        -1.14030
C         50.19007        41.62608        -0.04131
C         48.95877        42.28453         0.27923
C         50.26476        43.99279         1.21533
C         48.95887        43.57770         0.90522
C         51.35202        29.60156         0.02865
C         52.56078        31.72332        -0.84823
C         51.46367        30.94292        -0.42664
C         52.45528        32.93070        -1.18501
C         51.31400        33.75581        -1.24997
C         52.51081        35.97731        -1.45807
C         51.30542        35.19061        -1.36584
C         52.36043        37.24366        -1.52210
C         51.35135        38.15690        -1.36040
C         52.58574        40.21387        -0.46595
C         51.43750        39.60028        -1.14816
C         52.56906        41.36569        -0.00176
C         51.45419        42.18256         0.36125
C         51.37209        43.43315         1.01101
O         50.89019        40.49669        -2.14674
O         43.28785        44.46207        -0.57369
O         38.16417        35.68367         1.60885
O         41.55784        42.93434         2.19092
O         40.49196        27.77871        -0.44561
O         46.63499        35.61524        -2.20795
O         34.52771        42.59312        -1.48115
O         48.76843        34.29030        -2.40883
O         45.97832        30.07054         2.37817
O         48.49504        39.83837        -2.54565
H         49.34394        40.01887        -3.01496
O         46.21908        30.21059        -1.21944
H         46.18432        30.87317        -1.94218
O         45.96583        38.33161        -2.42136
H         46.06647        37.43514        -2.82057
O         33.90914        43.19583         2.12146
H         33.94996        43.96389         2.72943
O         50.36872        37.42834         0.69174
H         51.21040        36.95536         0.87196
O         37.04492        42.97977        -1.65786
H         36.24023        43.33696        -2.09865
O         35.61789        37.41189        -2.36898
H         35.63381        38.35894        -2.65737
O         35.50616        40.24935        -2.33782
H         34.96466        40.98650        -2.70356
