         640
 CSIRO Nanostructure Databank - Neutral Graphene Oxide Data Set
C         23.26497        27.34680        -1.81840
C         23.26540        28.74630        -1.84494
C         23.28746        31.65957        -2.04534
C         23.28586        33.03794        -2.09715
C         23.24861        35.96018        -1.88956
C         23.24618        37.33940        -1.77029
C         23.22351        40.29202        -1.85376
C         23.27897        41.62474        -2.03422
C         23.25120        44.55272        -1.72746
C         23.23314        45.92333        -1.60227
C         25.40875        24.49781        -0.82079
C         24.38483        25.19272        -1.36132
C         25.53247        27.35390        -0.90775
C         24.37810        26.64035        -1.36099
C         25.55004        28.77999        -0.99038
C         24.38912        29.48298        -1.45641
C         25.58731        31.66323        -1.26459
C         24.42225        30.94392        -1.58047
C         25.63484        33.07637        -1.43658
C         24.44842        33.78134        -1.78109
C         25.67022        35.93254        -1.56357
C         24.44988        35.22685        -1.76410
C         25.66547        37.35919        -1.52250
C         24.44529        38.05606        -1.59531
C         25.70017        40.20537        -1.85222
C         24.42735        39.54897        -1.31797
C         25.69920        41.69730        -1.61182
C         24.49715        42.38703        -1.76649
C         25.68935        44.52014        -1.42913
C         24.46969        43.81890        -1.64653
C         25.66843        45.94468        -1.29741
C         24.43618        46.64607        -1.38393
C         25.58825        48.75775        -1.02454
C         24.42543        48.06605        -1.24197
C         27.92667        22.98464        -0.13703
C         27.78776        24.40265         0.23208
C         26.53458        25.18569        -0.15673
C         27.82794        27.35634        -0.06469
C         26.64709        26.65443        -0.35087
C         27.89599        28.75678        -0.32131
C         26.75133        29.47684        -0.67505
C         28.02896        31.65519        -0.71768
C         26.70957        30.98604        -0.51486
C         28.17624        33.06539        -1.17536
C         26.86744        33.81106        -1.30062
C         28.21569        35.91498        -1.43645
C         26.89028        35.18955        -1.39071
C         28.12900        37.38821        -1.12095
C         26.92304        38.08860        -1.32204
C         28.13344        40.22063        -1.14279
C         26.93541        39.50011        -1.35450
C         28.14202        41.66114        -1.17722
C         26.92517        42.38609        -1.37841
C         28.16034        44.51642        -1.15040
C         26.92877        43.81076        -1.32152
C         28.12996        45.96222        -1.02680
C         26.88194        46.66236        -1.06898
C         28.05820        48.79028        -0.67858
C         26.84888        48.08298        -0.93405
C         28.09930        50.23960        -0.63455
C         30.38652        23.06757         0.04823
C         29.13550        22.37750        -0.18127
C         30.37421        24.48665         0.32827
C         29.05533        25.16142         0.52524
C         30.33093        27.39621         0.50346
C         29.03437        26.67494         0.46923
C         30.39736        28.74341         0.26527
C         29.21725        29.43972        -0.30259
C         30.46276        31.67618        -0.01721
C         29.27000        30.92523        -0.47883
C         30.43745        33.06794        -0.01640
C         29.13736        33.81938        -0.22360
C         30.50812        35.92571        -0.44665
C         29.33023        35.24222        -0.66909
C         30.56193        37.36995        -0.63767
C         29.33578        38.08797        -0.87369
C         30.57268        40.23185        -0.72020
C         29.34258        39.51400        -0.87776
C         30.57862        41.64163        -0.81556
C         29.36746        42.36207        -1.00289
C         30.62076        44.50408        -0.81265
C         29.37950        43.80348        -1.02588
C         30.63801        45.99521        -1.02691
C         29.31628        46.67866        -0.81548
C         30.49073        48.77143        -0.20657
C         29.28424        48.07721        -0.56424
C         30.38425        50.17708         0.33607
C         29.20248        50.91006        -0.24026
C         32.84604        20.25467         0.33838
C         31.64696        20.92221         0.21576
C         32.87253        23.05432         0.04342
C         31.59278        22.33924         0.10087
C         32.83957        24.58043         0.23384
C         31.54210        25.20815         0.50251
C         32.82697        27.36830         0.83104
C         31.52443        26.63028         1.04196
C         32.82679        28.78412         0.77853
C         31.61940        29.50146         0.46655
C         32.82117        31.62888         0.71957
C         31.63514        30.91585         0.36598
C         32.76565        33.09641         0.82757
C         31.60823        33.83252         0.30018
C         32.93566        35.92216         0.16118
C         31.68391        35.22023         0.07457
C         33.05512        37.30910        -0.43822
C         31.76306        38.08595        -0.46139
C         33.02676        40.22887        -0.26421
C         31.79359        39.49874        -0.50916
C         33.05360        41.63287        -0.32123
C         31.89315        42.36511        -0.94156
C         33.03299        44.53215        -0.25395
C         31.82217        43.83473        -0.61163
C         32.97782        45.98396        -0.11261
C         31.79873        46.68650        -0.37033
C         32.93219        48.83240         0.15631
C         31.71899        48.09648        -0.12407
C         32.90980        50.23823         0.20043
C         31.68361        50.95038         0.25744
C         32.89560        53.05413         0.58698
C         31.68900        52.33026         0.44935
C         35.36478        18.78259         0.58907
C         35.33669        20.20260         0.55646
C         34.10255        20.92893         0.41337
C         35.33388        23.07429         0.48361
C         34.13290        22.34804         0.33032
C         35.31016        24.52582         0.62909
C         34.08824        25.23761         0.65330
C         35.28351        27.36201         1.01276
C         34.05048        26.65204         0.86053
C         35.25746        28.76795         1.12503
C         34.05692        29.50367         0.95607
C         35.25779        31.70455         1.06420
C         34.03056        30.95011         0.96992
C         35.32370        33.08634         0.94631
C         34.08653        33.87494         0.96117
C         35.39410        35.95155         0.48704
C         34.11398        35.27482         0.51413
C         35.41438        37.39430         0.38984
C         34.23126        38.09199         0.09815
C         35.42378        40.23762         0.37087
C         34.22089        39.51028         0.08760
C         35.41800        41.65995         0.32047
C         34.24261        42.35931        -0.01377
C         35.39212        44.50921         0.51368
C         34.22352        43.82209         0.01943
C         35.28337        45.94097         0.82592
C         34.13306        46.70995         0.33487
C         35.39098        48.84751         0.61575
C         34.15577        48.10870         0.36244
C         35.41661        50.25746         0.51671
C         34.19934        50.99744         0.01780
C         35.36669        53.16707         0.55302
C         34.13086        52.43840         0.47128
C         35.43202        54.52885         0.32611
C         37.79979        18.76275         0.69928
C         36.55322        18.08825         0.65162
C         37.80100        20.19113         0.70549
C         36.56787        20.91328         0.62868
C         37.80718        23.03774         0.70366
C         36.57634        22.35123         0.61216
C         37.83412        24.53133         0.49628
C         36.53437        25.23375         0.83071
C         37.76950        27.33502         1.21138
C         36.52923        26.62751         1.03919
C         37.80610        28.72957         1.23646
C         36.52898        29.47588         1.34999
C         37.77608        31.64003         0.83978
C         36.52076        30.96620         1.26644
C         37.78255        33.10663         0.78833
C         36.58761        33.79672         0.80865
C         37.85370        35.94428         0.71602
C         36.58741        35.24296         0.65652
C         37.85215        37.37360         0.82017
C         36.63499        38.10611         0.64194
C         37.84269        40.24767         0.99006
C         36.63497        39.52431         0.64651
C         37.82002        41.64030         1.08752
C         36.73163        42.40445         0.38129
C         37.77705        44.57171         1.17023
C         36.59778        43.85273         0.80265
C         37.82797        45.97145         1.16797
C         36.56992        46.71538         1.13371
C         37.82936        48.84590         1.00653
C         36.59523        48.16163         0.90044
C         37.81885        50.25948         0.97669
C         36.61490        50.95439         0.76159
C         37.90661        53.12058         0.58063
C         36.61542        52.44893         0.99892
C         37.88543        54.54253         0.26544
C         36.67020        55.21068         0.22677
C         40.28088        15.91583         0.59198
C         39.08642        16.60532         0.69348
C         40.25946        18.75661         0.83879
C         39.04804        18.04110         0.76174
C         40.26949        20.17809         0.83355
C         39.03878        20.90082         0.77833
C         40.28448        23.03095         0.92913
C         39.03658        22.33218         0.79740
C         40.26661        24.47896         1.12476
C         39.06531        25.16580         1.07772
C         40.28895        27.33270         1.39848
C         39.00653        26.56814         1.59694
C         40.26485        28.73053         1.39978
C         39.04085        29.44074         1.31249
C         40.30120        31.68173         1.07603
C         39.05967        30.88117         0.96626
C         40.30641        33.01559         0.82121
C         39.06516        33.76567         0.36307
C         40.30655        35.91684         0.93480
C         39.06965        35.23671         0.70376
C         40.30082        37.35498         1.08953
C         39.08228        38.07382         1.01195
C         40.30190        40.18896         1.26090
C         39.07981        39.50605         1.14755
C         40.30243        41.61850         1.60917
C         38.96482        42.36155         1.64352
C         40.30008        44.55423         1.39334
C         38.98183        43.88492         1.77018
C         40.31469        45.94716         1.27307
C         39.06972        46.69851         1.22664
C         40.32139        48.84071         1.13683
C         39.07665        48.10746         1.16881
C         40.33922        50.24472         1.05892
C         39.07192        51.03322         1.30762
C         40.38726        53.16965         0.74357
C         39.07636        52.42742         0.70705
C         40.35891        54.49726         0.02880
C         39.14011        55.21926        -0.04036
C         40.37001        57.20406        -0.73343
C         39.16859        56.56859        -0.46333
C         42.74371        15.92702         0.43416
C         41.52321        16.58615         0.65639
C         42.79230        18.76697         0.75823
C         41.54078        18.01434         1.12962
C         42.77540        20.17157         0.79200
C         41.51223        20.88967         0.87938
C         42.78104        22.99714         1.16267
C         41.49023        22.30025         0.96098
C         42.78154        24.48906         1.32143
C         41.50126        25.21149         1.31771
C         42.78557        27.34202         1.31041
C         41.52448        26.61566         1.36002
C         42.81285        28.73780         1.37756
C         41.53960        29.46778         1.56562
C         42.83473        31.64366         1.21513
C         41.54661        30.96289         1.44116
C         42.84150        33.03152         1.08814
C         41.60003        33.76708         0.63704
C         42.73874        35.91061         1.42490
C         41.50675        35.20426         1.07405
C         42.77660        37.36949         1.29918
C         41.54045        38.06062         1.20620
C         42.78211        40.17338         1.33741
C         41.54158        39.48233         1.24380
C         42.75950        41.64564         1.16352
C         41.52977        42.40489         1.41582
C         42.79281        44.53244         1.29215
C         41.53173        43.80508         1.36285
C         42.79977        45.95962         1.25946
C         41.56154        46.67025         1.19724
C         42.80735        48.76015         1.04545
C         41.56624        48.08556         1.11938
C         42.87590        50.26247         1.04062
C         41.55678        50.95722         0.80498
C         42.83723        52.93493         0.05590
C         41.59185        52.30375         0.46361
C         42.79581        54.28576        -0.62282
C         41.55812        55.10458        -0.36051
C         42.84823        57.14681        -0.88023
C         41.58040        56.48145        -0.69545
C         43.94593        16.62244         0.40661
C         45.22825        18.76462         0.32912
C         43.99764        18.04628         0.51497
C         45.23156        20.18913         0.42122
C         44.01031        20.88956         0.65637
C         45.21071        23.02764         0.56816
C         44.02994        22.31050         0.74603
C         45.16700        24.52093         0.37027
C         44.01141        25.23202         1.01424
C         45.26013        27.34844         0.95196
C         44.01853        26.62034         1.08496
C         45.27259        28.75733         1.08938
C         44.04113        29.46717         1.26821
C         45.28770        31.60618         1.13682
C         44.04951        30.89999         1.24558
C         45.29426        33.03808         1.13824
C         44.07309        33.72572         1.14533
C         45.30276        35.94388         1.22498
C         44.06597        35.17361         1.41382
C         45.27763        37.34125         1.29746
C         44.00864        38.05203         1.35997
C         45.27650        40.18485         1.62470
C         43.99407        39.47574         1.38528
C         45.28940        41.67486         1.60310
C         44.05640        42.39926         1.18789
C         45.27041        44.54034         1.42310
C         44.02821        43.85776         1.33976
C         45.28842        45.95202         1.39216
C         44.04690        46.65868         1.26579
C         45.28092        48.82010         1.00199
C         44.03047        48.07875         1.11031
C         45.30038        50.11427         0.54040
C         43.98646        50.73442         0.11179
C         45.26498        52.84028        -0.58637
C         44.01474        52.23914         0.01105
C         45.28378        54.35506        -0.50389
C         44.09191        55.05963        -0.52738
C         44.03222        56.48657        -0.71679
C         47.64046        18.80389        -0.07839
C         46.46686        18.10524         0.07193
C         47.68284        20.22886         0.02615
C         46.45437        20.92029         0.28654
C         47.67269        23.07428         0.26167
C         46.44471        22.34367         0.35626
C         47.68492        24.50741         0.39140
C         46.47930        25.22468         0.57267
C         47.72737        27.34236         0.66759
C         46.48665        26.62723         0.74257
C         47.75049        28.76160         0.81404
C         46.51996        29.47896         1.03287
C         47.76957        31.64683         1.15661
C         46.51038        30.88687         1.10703
C         47.75650        33.10732         0.95975
C         46.53389        33.79161         1.05350
C         47.74982        35.93664         0.93265
C         46.52396        35.22300         1.04257
C         47.74999        37.36637         1.03270
C         46.52521        38.06788         1.23016
C         47.78123        40.17546         1.42643
C         46.55696        39.47174         1.41287
C         47.82373        41.63478         1.86946
C         46.56011        42.41901         1.54923
C         47.79490        44.53316         1.80728
C         46.51791        43.78561         1.51851
C         47.75753        46.00731         1.48211
C         46.55133        46.66830         1.41674
C         47.79491        48.83981         1.08325
C         46.52530        48.17249         1.54170
C         47.77955        50.19563         0.69072
C         46.53469        50.86148         0.38421
C         47.77279        52.90819        -0.16410
C         46.54107        52.18325        -0.08020
C         47.73141        54.31370        -0.49433
C         46.56059        55.00479        -0.59350
C         50.13232        20.32914        -0.52097
C         48.89583        20.95938        -0.09818
C         50.13892        23.10021         0.07358
C         48.90206        22.37712         0.09752
C         50.14940        24.49716         0.11759
C         48.92041        25.21616         0.30277
C         50.15572        27.35401         0.17826
C         48.93319        26.63319         0.40432
C         50.14418        28.78227         0.21896
C         48.97407        29.45641         0.61350
C         50.21107        31.66542         0.35958
C         49.05783        30.90153         0.86804
C         50.19292        33.09139         0.43078
C         48.97776        33.80415         0.74194
C         50.19300        35.95855         0.55482
C         48.97298        35.22844         0.74425
C         50.20463        37.37330         0.69196
C         48.98066        38.08681         0.98459
C         50.32403        40.19749         1.39907
C         48.99272        39.48489         1.21524
C         50.22763        41.68994         1.13508
C         49.05361        42.35312         1.37392
C         50.30619        44.52131         1.54025
C         48.98645        43.84807         1.13419
C         50.24499        46.01465         1.29835
C         49.03063        46.70886         1.37784
C         50.25348        48.85135         1.08384
C         49.01591        48.13797         1.17698
C         50.23414        50.25334         0.87002
C         49.01659        50.90607         0.55744
C         50.26394        52.98695         0.06868
C         49.00184        52.28222         0.15116
C         51.31672        20.98058        -0.49284
C         52.66107        23.12712        -0.21908
C         51.43468        22.32717         0.17371
C         52.60364        24.55305        -0.22962
C         51.39235        25.23285        -0.03730
C         52.53027        27.41045        -0.49190
C         51.36285        26.66708        -0.07421
C         52.43724        28.83150        -0.64134
C         51.31672        29.52115        -0.18551
C         52.51501        31.69755        -0.48877
C         51.31792        30.97278        -0.14619
C         52.54530        33.11505        -0.30091
C         51.37252        33.81669         0.10950
C         52.57684        35.97312        -0.06772
C         51.38796        35.25141         0.21492
C         52.57664        37.40122         0.02585
C         51.41005        38.09809         0.45859
C         52.59797        40.22941         0.29497
C         51.46073        39.52036         0.65306
C         52.73859        41.68204         0.68514
C         51.42846        42.42226         0.79038
C         52.60181        44.54956         0.44831
C         51.45769        43.81618         0.85436
C         52.65129        45.98609         0.61620
C         51.47878        46.71183         1.09825
C         52.76839        48.83215         1.15356
C         51.48536        48.12164         1.14014
C         52.79765        50.32965         1.17497
C         51.47134        51.05591         0.99241
C         51.43098        52.42921         0.47041
C         55.04408        23.21844        -0.79518
C         53.86903        22.48908        -0.45904
C         55.07181        24.59504        -0.78079
C         53.89154        25.34662        -0.22671
C         54.88187        27.46755        -1.28991
C         53.74413        26.75492        -0.74372
C         54.80152        28.83020        -1.55423
C         53.49378        29.57341        -1.41490
C         54.88744        31.70624        -1.13212
C         53.65651        31.01339        -0.96632
C         54.93166        33.10874        -0.84814
C         53.76746        33.82233        -0.52804
C         54.92651        35.99805        -0.79455
C         53.77664        35.27458        -0.43704
C         54.91728        37.44196        -0.77519
C         53.75241        38.13609        -0.31542
C         54.92073        40.28882        -0.61046
C         53.75394        39.55534        -0.22782
C         54.90285        41.73416        -0.63849
C         53.76319        42.44315        -0.12449
C         54.68298        44.59890        -0.94568
C         53.68120        43.83581        -0.17765
C         54.71719        46.08900        -0.78758
C         53.75145        46.70434         0.13687
C         55.11454        48.87905         0.02263
C         53.96974        48.09236         0.54409
C         55.13634        50.29428         0.32259
C         54.07746        50.97233         0.83458
C         57.52304        24.71084        -1.27486
C         56.23943        25.35983        -1.18320
C         57.27445        27.39091        -2.10341
C         56.11614        26.71490        -1.50151
C         57.20620        28.88728        -2.39713
C         55.89626        29.64748        -2.22061
C         57.28137        31.72730        -1.80995
C         56.05903        31.02461        -1.60591
C         57.36115        33.12950        -1.54291
C         56.25526        33.82384        -0.78872
C         57.27639        35.99495        -1.49795
C         56.15217        35.30026        -1.11173
C         57.19545        37.46377        -1.84162
C         56.05440        38.17532        -1.16141
C         57.26911        40.32552        -1.42051
C         56.07281        39.58976        -1.06380
C         57.24183        41.74811        -1.44526
C         56.02897        42.43081        -1.12463
C         57.19599        44.65428        -1.56828
C         55.94729        43.87779        -1.38372
C         57.20579        46.06303        -1.47066
C         55.99167        46.84193        -1.12029
C         57.39359        48.89959        -0.97101
C         56.15794        48.23989        -0.63686
C         58.66365        25.39546        -1.60582
C         59.73187        27.50568        -2.33236
C         58.60141        26.76512        -1.99852
C         59.67134        28.89939        -2.52279
C         58.47841        29.61973        -2.43221
C         59.61079        31.81486        -2.59932
C         58.45683        31.05693        -2.30083
C         59.63639        33.18409        -2.41975
C         58.51979        33.85550        -1.85989
C         59.70161        36.04874        -1.79223
C         58.53537        35.31000        -1.71412
C         59.68789        37.47292        -1.71316
C         58.51411        38.18609        -1.70058
C         59.62239        40.38523        -2.05720
C         58.47961        39.63931        -1.71972
C         59.58663        41.77484        -2.10984
C         58.41581        42.48792        -1.80511
C         59.59661        44.68363        -2.00345
C         58.40539        43.94772        -1.80089
C         59.60373        46.06581        -1.93813
C         58.42132        46.77344        -1.63805
C         58.45889        48.20553        -1.46518
O         54.85284        44.18376        -2.32970
O         35.64370        46.30063         2.19984
O         41.50157        30.32697         2.77371
O         36.57333        30.31934         2.58274
O         38.39820        31.06439        -0.38478
O         54.86444        46.77484        -2.07541
O         48.67451        31.24524         2.24775
O         43.37627        35.44920         2.69018
O         29.56518        29.98793        -1.63933
O         52.11498        50.92137         2.32165
O         53.79079        48.24949         2.00520
O         33.23457        33.61486         2.12039
O         32.95503        23.97432        -1.09951
O         26.74311        24.68207         1.21118
O         45.19273        40.96100         2.90610
O         43.48141        41.98890        -0.10084
O         42.92288        23.57812         2.51203
O         28.88180        25.93810         1.75528
O         57.04323        27.91351        -3.48246
O         39.54117        41.78967         2.86730
O         41.78801        33.86399        -0.82825
H         40.88200        33.95829        -1.22767
O         24.44009        39.70381         0.12801
H         23.63788        39.27168         0.48741
O         37.97403        24.71502        -0.97261
H         37.19700        24.28632        -1.39242
O         34.39724        51.08335        -1.44853
H         33.60670        51.53022        -1.81969
O         26.36646        31.16973         0.92157
H         25.45822        30.82076         1.04910
O         50.66227        40.09550         2.82422
H         49.93002        40.53281         3.31954
O         28.61791        35.86527        -2.85650
H         29.57800        36.06092        -2.90123
O         39.05089        51.26833         2.76993
H         38.18780        51.72698         2.95534
O         32.19202        42.35298        -2.40645
H         32.13410        41.41850        -2.70109
O         55.43682        29.92413        -3.60057
H         55.71297        29.13753        -4.13061
O         36.61181        52.57533         2.48204
H         35.74605        52.24235         2.80361
O         31.38004        26.54354         2.49642
H         30.44852        26.25038         2.66410
O         47.96811        44.46799         3.25734
H         47.26820        45.01717         3.67005
O         48.79072        44.05665        -0.28827
H         49.54311        43.64473        -0.76371
O         39.08873        33.67276        -1.11853
H         38.88555        32.72402        -1.31989
O         30.11351        50.02543         1.78031
H         29.28100        49.51341         1.86514
O         53.24655        41.64221         2.06848
H         52.54856        41.20303         2.61064
O         51.61966        22.05233         1.61345
H         50.82612        21.56203         1.91789
O         46.47053        48.40186         3.00542
H         46.31081        49.36025         3.14478
O         44.88442        24.66051        -1.09197
H         44.99611        25.60914        -1.31920
O         33.37895        37.06448        -1.86153
H         33.58851        37.93265        -2.26677
O         41.58773        17.91690         2.61563
H         40.78543        17.42428         2.89291
O         43.69968        50.27097        -1.23384
H         44.30246        50.77030        -1.83760
O         28.45064        33.85632         1.05873
H         29.02966        34.31321         1.70437
O         38.88649        26.41762         3.07604
H         38.93352        27.31798         3.46544
O         28.85815        33.05003        -2.46131
H         28.36292        32.46213        -3.06881
O         56.65441        33.76090         0.63522
H         57.51411        34.22709         0.71524
O         56.87808        37.51553        -3.28514
H         57.59981        37.04553        -3.75464
O         30.88814        46.13801        -2.48647
H         31.62320        45.52774        -2.71391
O         50.57865        44.32878         2.94879
H         49.73340        44.46939         3.44229
O         37.19178        42.47588        -1.03020
H         36.45083        42.84332        -1.55884
O         42.70143        53.93118        -2.07130
H         42.58003        54.77295        -2.56247
O         43.28390        50.66796         2.38624
H         42.54982        50.45211         2.99944
O         25.67719        40.01220        -3.29990
H         26.49441        40.40657        -3.66976
O         45.17585        52.52195        -2.02805
H         44.35072        52.97400        -2.34529
O         52.92268        29.66872        -2.77545
H         53.67704        29.93661        -3.36500
O         54.20641        25.52005         1.22134
H         54.14176        24.63097         1.63336
O         38.84171        44.18641         3.19689
H         39.26466        43.43998         3.68454
O         40.56064        53.53188         2.16668
H         40.21904        52.76486         2.69406
O         47.92868        41.56908         3.33069
H         47.03789        41.28474         3.65212
H         22.37780        26.79652        -2.16245
H         22.36447        29.25470        -2.21129
H         22.37040        31.12481        -2.32335
H         22.36792        33.55212        -2.41082
H         22.29211        35.44110        -2.03379
H         22.28421        37.86743        -1.81632
H         22.27397        39.76612        -2.02901
H         22.38189        42.15784        -2.37969
H         22.30285        44.02230        -1.88431
H         22.28278        46.47277        -1.66522
H         25.36651        23.40111        -0.78015
H         23.52293        24.66787        -1.79873
H         25.54498        49.84867        -0.90767
H         23.46594        48.59960        -1.30432
H         27.01693        22.39571        -0.31391
H         27.22251        50.80734        -0.97640
H         29.17185        21.31044        -0.43908
H         29.19250        52.00903        -0.23889
H         32.81595        19.16066         0.42092
H         30.71782        20.33706         0.22832
H         32.83691        54.12022         0.84945
H         30.74499        52.87560         0.57841
H         34.42896        18.21063         0.54955
H         34.51375        55.09313         0.10776
H         36.51670        16.99128         0.66449
H         36.63703        56.28926         0.02445
H         40.26863        14.82977         0.41494
H         38.14939        16.03748         0.63092
H         40.38529        58.27177        -0.99501
H         38.23797        57.14589        -0.54195
H         42.73957        14.84382         0.23951
H         42.84467        58.22960        -1.07205
H         44.86873        16.05640         0.22474
H         44.96704        57.06071        -0.77273
H         48.56757        18.24494        -0.26411
H         46.49888        17.01022        -0.00402
H         48.66995        54.87437        -0.58745
H         46.60550        56.09236        -0.74224
H         50.09228        19.30932        -0.93012
H         50.28465        54.01771        -0.30821
H         52.22204        20.47078        -0.85210
H         52.36069        53.01382         0.44170
H         55.92485        22.64477        -1.11640
H         53.93247        21.39299        -0.44007
H         56.04727        50.86304         0.09152
H         54.17608        52.04675         1.04323
H         57.60364        23.65331        -0.99089
H         57.50072        49.97656        -0.78538
H         59.64025        24.89048        -1.58821
H         60.71399        27.01116        -2.33737
H         60.62384        29.43626        -2.62786
H         60.49663        31.32092        -3.01952
H         60.53277        33.74773        -2.70963
H         60.67475        35.54783        -1.88145
H         60.65619        37.99169        -1.67313
H         60.55884        39.87198        -2.31382
H         60.50219        42.30378        -2.40358
H         60.54308        44.16476        -2.20097
H         60.54133        46.62050        -2.08475
H         59.40277        48.72752        -1.67881
