         651
 CSIRO Nanostructure Databank - Neutral Graphene Oxide Data Set
C          5.99472        31.87814         1.43353
C          5.99478        33.17244         1.00713
C          8.40028        27.70907         2.48684
C          8.42291        29.04500         2.07210
C          7.21477        29.80554         1.97272
C          8.43297        31.70387         0.98254
C          7.21099        31.10336         1.48120
C          8.41942        33.02997         0.54811
C          7.21674        33.81700         0.58705
C          8.46831        35.88937         0.04017
C          7.23784        35.17440         0.26374
C          8.48730        37.28778        -0.13669
C         10.77869        23.22573         2.36199
C         10.80937        24.72395         2.25071
C          9.53505        25.49855         2.53193
C         10.87687        27.53189         2.30860
C          9.57591        26.87941         2.48549
C         10.96413        29.03490         2.03948
C          9.65538        29.67416         1.63629
C         10.89325        31.49735         0.42407
C          9.65242        30.91605         1.03154
C         10.91468        32.95595         0.28515
C          9.63706        33.65395        -0.08303
C         10.92909        35.85866        -0.01134
C          9.69215        35.16222         0.05193
C         10.95782        37.28244        -0.15214
C          9.70955        38.01609        -0.25220
C         11.01561        40.16941        -0.25905
C          9.73620        39.39997        -0.44623
C         11.02647        41.58755        -0.75769
C         13.19681        19.08982         1.31230
C         13.22101        20.44478         1.66171
C         12.01157        21.12632         1.95598
C         13.24935        23.22367         2.37428
C         11.97330        22.52002         2.21995
C         13.26276        24.55244         2.83676
C         11.97680        25.36408         3.01642
C         13.26421        27.42506         2.04026
C         12.02807        26.81178         2.49491
C         13.08557        28.45439         1.02448
C         12.09130        29.36735         1.07920
C         13.52319        31.41255         0.14122
C         12.16235        30.67723         0.33565
C         13.48049        32.93180         0.02080
C         12.15285        33.66479        -0.00355
C         13.38739        35.80987        -0.07067
C         12.15796        35.13588         0.04393
C         13.38811        37.19587        -0.37536
C         12.19975        37.94710        -0.36266
C         13.38894        40.01018        -1.05620
C         12.24373        39.37614        -0.63474
C         13.27853        41.32602        -1.82761
C         12.12799        42.19385        -1.31151
C         13.33537        44.34271        -1.66449
C         12.15295        43.61716        -1.46043
C         13.37500        45.74375        -1.71166
C         15.64946        14.90028         0.06996
C         15.59744        16.24637         0.53280
C         14.40621        16.93190         0.62676
C         15.72320        19.10235         1.05361
C         14.38415        18.38737         0.85136
C         15.68567        20.47816         1.56891
C         14.49764        21.15771         1.75855
C         15.71209        23.25189         2.36673
C         14.48997        22.55508         2.18056
C         15.76255        24.59028         2.83269
C         14.49825        25.11611         3.19069
C         15.82896        27.69945         2.40013
C         14.47055        27.17864         2.63251
C         15.95476        28.93280         1.60074
C         15.04618        29.41123         0.71291
C         16.01534        31.71931         0.90924
C         14.91974        30.84168         0.38706
C         15.87350        33.11647         0.84672
C         14.68837        33.73762         0.35066
C         15.83733        35.94137         0.33410
C         14.63517        35.12883         0.18161
C         15.87615        37.25177        -0.18761
C         14.66204        37.82406        -0.75639
C         15.94104        40.03726        -1.11160
C         14.66512        39.27635        -1.17476
C         15.96932        41.31949        -1.93285
C         14.63440        42.10644        -1.97565
C         15.85854        44.35294        -1.68656
C         14.60962        43.60778        -1.88817
C         15.87330        45.73954        -1.77598
C         14.59788        46.47380        -1.87769
C         15.90392        48.54552        -2.41590
C         14.61090        47.84033        -2.06800
C         15.80535        50.04932        -2.39442
C         18.01903        11.31636        -2.15099
C         18.01947        12.32013        -1.17492
C         16.83635        12.98144        -0.83588
C         18.11466        14.71471         0.39018
C         16.84215        14.18050        -0.07463
C         18.09608        16.00657         1.13216
C         16.85231        16.84140         1.07722
C         18.18090        18.92318         1.50343
C         16.96459        18.31179         1.23847
C         18.24779        20.36852         1.72597
C         16.99116        21.15947         1.62825
C         18.23838        23.21746         2.55701
C         16.98723        22.59649         2.03620
C         18.23704        24.70232         2.59415
C         17.03419        25.36444         2.79607
C         18.39246        27.50169         2.42261
C         17.08138        26.86262         2.72719
C         18.43776        28.94630         2.05269
C         17.22722        29.66416         1.61144
C         18.40670        31.82683         1.65279
C         17.18576        31.12291         1.44745
C         18.32548        33.30232         1.62731
C         17.00075        33.95998         1.29957
C         18.27387        36.03978         0.59030
C         16.99264        35.37360         0.90491
C         18.28081        37.53020         0.52219
C         16.94728        38.22323         0.24472
C         18.38357        40.13527        -0.72440
C         17.08869        39.46765        -0.61643
C         18.38059        41.49197        -1.21570
C         17.16571        42.14162        -1.53822
C         18.32910        44.32004        -1.77076
C         17.09540        43.61709        -1.24630
C         18.34921        45.80117        -1.59388
C         17.09744        46.47471        -1.65752
C         18.25640        48.66247        -1.00151
C         17.01979        47.95286        -1.50990
C         18.41291        50.14548        -1.01100
C         16.80234        50.83541        -2.94744
C         18.15091        52.86037        -2.18781
C         16.95184        52.23005        -2.55123
C         18.12083        54.17625        -1.69182
C         20.26320         8.05166        -4.97391
C         20.32554         9.22015        -4.24988
C         19.15279         9.76232        -3.64881
C         20.49831        11.37331        -2.32278
C         19.21163        10.79422        -2.71400
C         20.52633        12.32574        -1.27096
C         19.29854        12.65074        -0.44018
C         20.57934        14.70067         0.44384
C         19.30750        14.07175         0.12653
C         20.64206        15.99520         0.93388
C         19.42167        16.65289         1.53983
C         20.64755        18.82985         1.54151
C         19.43127        18.17502         1.47302
C         20.69878        20.24550         2.00568
C         19.43142        21.00367         1.99573
C         20.75662        23.21441         2.05583
C         19.50211        22.43456         2.42833
C         20.72820        24.65520         2.50309
C         19.54187        25.35915         2.57101
C         20.86738        27.49954         2.40685
C         19.57744        26.81465         2.51687
C         20.85118        28.95188         2.04823
C         19.63451        29.74854         2.49589
C         20.86747        31.93291         2.09233
C         19.60750        31.18848         1.99504
C         20.91685        33.38355         1.70926
C         19.61039        34.06836         1.46637
C         20.89061        35.99676         0.26169
C         19.56936        35.29727         0.60933
C         20.88079        37.49039         0.54704
C         19.58470        38.24517         0.38600
C         20.85945        40.22088        -0.48029
C         19.59912        39.56995        -0.28212
C         20.85215        41.54916        -1.01017
C         19.62981        42.18358        -1.30555
C         20.88380        44.37666        -1.93892
C         19.60848        43.56319        -1.83851
C         20.84461        45.69329        -1.13504
C         19.53831        46.44720        -1.28657
C         20.81771        48.64315        -1.29076
C         19.54474        47.88536        -0.97069
C         20.75971        50.07251        -1.69062
C         19.50582        50.77774        -1.58816
C         20.67755        52.93726        -1.78560
C         19.48625        52.15265        -2.26309
C         20.60267        54.29556        -1.42994
C         19.27959        54.91983        -1.32154
C         20.28008        57.03485        -0.47197
C         19.13638        56.17274        -0.73711
C         20.18558        58.19900         0.39385
C         22.57119         5.28774        -6.15787
C         21.42123         6.02855        -6.03525
C         22.80135         7.89004        -4.98801
C         21.46625         7.39786        -5.51492
C         22.76709         8.91936        -3.86758
C         21.64972         9.95088        -4.08269
C         22.95108        11.52645        -2.63117
C         21.69215        10.95062        -2.94818
C         22.90061        12.61511        -1.70674
C         21.74078        12.93084        -0.95539
C         23.12486        14.56432         0.46487
C         21.81113        13.81312         0.28473
C         23.14364        16.00231         0.87996
C         21.87840        16.73890         1.07074
C         23.13837        18.90359         1.15872
C         21.88769        18.10540         1.32050
C         23.21987        20.33573         1.58138
C         22.00198        20.98564         2.16612
C         23.25454        23.10721         2.45893
C         22.05740        22.47690         2.29712
C         23.30264        24.57047         2.84295
C         22.01443        25.35436         2.78699
C         23.35080        27.57039         2.61814
C         22.04888        26.83007         2.59059
C         23.39340        28.97915         2.10911
C         22.11384        29.66594         1.77062
C         23.36947        31.79917         1.38226
C         22.18501        31.15273         1.92719
C         23.38663        33.18310         1.10643
C         22.16645        33.97552         1.15521
C         23.35600        35.97998         0.34424
C         22.15396        35.30106         0.73054
C         23.38865        37.36585         0.11745
C         22.17149        38.20115         0.33560
C         23.34243        40.22654        -0.47788
C         22.13347        39.59517        -0.19183
C         23.35669        41.58747        -0.95120
C         22.11064        42.24603        -1.19446
C         23.32113        44.32341        -1.63220
C         22.11824        43.60991        -1.53061
C         23.27725        45.77154        -1.77855
C         22.07122        46.48271        -1.57398
C         23.15537        48.58544        -2.14587
C         22.02741        47.88624        -1.67886
C         23.24312        50.10452        -2.26704
C         21.92931        50.78472        -1.92496
C         23.05307        52.89904        -1.24261
C         21.90320        52.23275        -1.73332
C         23.00283        54.26224        -0.87799
C         21.77740        54.97605        -1.01470
C         22.84555        57.07934         0.00732
C         21.69311        56.41555        -0.69036
C         22.62213        58.28452         0.82213
C         21.31496        58.84857         0.94113
C         22.25514        60.64174         2.32236
C         21.15873        60.04257         1.70760
C         23.82741         5.73817        -5.67124
C         25.13765         7.41282        -4.39204
C         23.95364         6.96648        -5.01014
C         25.25321         8.70361        -3.80258
C         24.11586         9.55840        -3.62297
C         25.56968        11.29388        -2.77562
C         24.21997        10.85140        -3.07335
C         25.86183        12.59753        -2.26541
C         24.03183        13.47725        -1.49524
C         25.61856        14.77476        -0.11116
C         24.28962        14.19853        -0.37077
C         25.67429        15.98074         0.51440
C         24.40311        16.75343         0.58529
C         25.73236        18.86694         1.14782
C         24.43289        18.20811         0.85957
C         25.71716        20.25519         1.59492
C         24.54734        20.94022         1.86991
C         25.84655        23.04229         2.57030
C         24.52736        22.30802         2.46484
C         25.88769        24.55025         2.60611
C         24.62734        25.32024         2.84098
C         25.64335        27.27264         1.51830
C         24.71929        26.86946         2.68650
C         25.71533        28.79276         1.30527
C         24.62056        29.56329         1.49860
C         25.76578        31.62671         0.62291
C         24.44786        30.91372         0.78301
C         25.79375        33.01442         0.56051
C         24.58835        33.78053         0.63940
C         25.81886        35.86096        -0.18397
C         24.51862        35.11767        -0.06254
C         25.77214        37.26038        -0.42104
C         24.59962        38.02243        -0.21824
C         25.87370        40.14373        -0.77658
C         24.65407        39.54107        -0.11009
C         25.92645        41.64641        -0.97285
C         24.57086        42.28532        -1.21169
C         25.79408        44.36718        -2.02969
C         24.55486        43.62853        -1.62259
C         25.79208        45.85989        -1.91788
C         24.47696        46.47889        -2.06022
C         26.09239        48.88599        -1.95719
C         24.29228        47.82430        -2.43717
C         25.77112        50.09911        -1.35435
C         24.39227        50.68241        -1.40198
C         25.52737        52.84609        -0.58383
C         24.25514        52.09069        -0.91044
C         25.23233        54.10368         0.19489
C         24.13376        54.84288        -0.14056
C         25.08785        56.78209         1.23572
C         24.08831        56.26983         0.26550
C         24.93976        58.11866         1.68999
C         23.71489        58.83237         1.55392
C         23.51688        60.05018         2.26568
C         26.52798         9.13552        -3.34572
C         28.07862        10.88097        -2.43310
C         26.68765        10.41020        -2.83372
C         28.11200        12.11870        -1.55321
C         26.92751        12.91429        -1.43094
C         28.14495        14.53047         0.10553
C         26.81777        13.83411        -0.21269
C         28.19303        15.88971         0.74702
C         26.89221        16.61983         1.14355
C         28.19174        18.82842         0.94803
C         26.90897        18.14472         1.03011
C         28.23048        20.24601         1.20528
C         27.04873        20.85966         1.83535
C         28.31720        23.08925         1.85612
C         27.12346        22.32298         2.24162
C         28.29437        24.52027         1.85911
C         27.07311        25.25972         2.04035
C         28.21068        27.33822         1.42206
C         27.00642        26.60970         1.69517
C         28.20103        28.72897         1.08309
C         26.90596        29.23453         0.46243
C         28.24605        31.51791         0.29360
C         26.91684        30.79720         0.06732
C         28.25875        32.97051        -0.14716
C         27.10468        33.76733         0.50031
C         28.27306        35.79551        -0.38155
C         27.04019        35.16040        -0.11921
C         28.30468        37.17508        -0.89681
C         26.98340        37.93433        -0.89843
C         28.25425        39.99812        -1.47828
C         27.00378        39.40695        -0.96973
C         28.09426        41.18667        -2.14707
C         26.83188        42.00716        -2.16976
C         28.36903        44.34411        -1.93269
C         27.06352        43.58649        -2.23894
C         28.26718        45.80233        -1.51014
C         26.97906        46.54943        -1.67352
C         28.07808        48.56504        -0.63982
C         27.06955        47.98645        -1.46116
C         27.95058        49.90471        -0.20518
C         26.76024        50.66255        -0.47977
C         27.66716        52.60030         0.76294
C         26.61934        51.98220        -0.00270
C         27.49065        53.89176         1.28305
C         26.11884        54.49215         1.35850
C         26.12594        55.96470         1.64287
C         29.31123        12.64867        -1.11424
C         30.55568        14.66400        -0.46140
C         29.37953        13.95296        -0.50532
C         30.64354        16.03549        -0.02239
C         29.51290        16.67265         0.78124
C         30.54306        18.94503         0.23356
C         29.34100        18.15718         0.54226
C         30.63272        20.32257         0.72082
C         29.43699        20.96416         1.17903
C         30.70235        23.09179         1.28449
C         29.47489        22.38474         1.46791
C         30.72131        24.50663         1.42886
C         29.49290        25.22895         1.61627
C         30.66120        27.40147         1.47470
C         29.45647        26.65921         1.52923
C         30.64016        28.80182         1.33193
C         29.39084        29.47030         1.09082
C         30.58001        31.72072         1.10552
C         29.36722        30.90824         0.77728
C         30.68213        33.13384         0.65609
C         29.52680        33.74288         0.15501
C         30.73136        35.89124        -0.05649
C         29.51424        35.13386        -0.11227
C         30.72059        37.27745        -0.37014
C         29.56273        37.95874        -0.82926
C         30.75652        40.10345        -1.13388
C         29.54253        39.33265        -1.22230
C         30.86766        41.49285        -1.27901
C         29.87047        42.32472        -1.89971
C         30.54343        44.20654        -0.53764
C         29.57917        43.59507        -1.47900
C         30.38661        45.60331        -0.04992
C         29.29578        46.43330        -0.61843
C         30.29943        48.40494         0.50624
C         29.21431        47.75544        -0.24320
C         30.16803        49.77693         0.86208
C         29.00757        50.52648         0.56588
C         28.86207        51.85460         1.00505
C         31.80597        16.72804        -0.21076
C         33.09885        18.89677         0.25410
C         31.87274        18.19924        -0.06914
C         33.10657        20.27189         0.48404
C         31.86894        20.98977         0.70263
C         33.15607        23.08006         1.01392
C         31.91734        22.39337         1.00431
C         33.17642        24.50704         1.16615
C         31.95049        25.19818         1.34496
C         33.18624        27.41004         1.27438
C         31.92954        26.65485         1.56632
C         33.09112        28.86755         1.09133
C         31.90272        29.52689         1.27976
C         33.13841        31.76271         1.28804
C         31.89797        31.00107         1.39455
C         33.08419        33.25756         1.47973
C         31.88317        33.87953         0.79337
C         33.19823        35.94758         0.40984
C         31.94013        35.23692         0.39013
C         33.24976        37.30833         0.03075
C         31.96740        38.03312        -0.15541
C         33.28421        40.13407        -0.83415
C         31.96920        39.47006        -0.55021
C         33.27539        41.60167        -0.70106
C         32.01670        42.22447        -0.77376
C         33.05742        44.36554        -0.26934
C         31.89946        43.60083        -0.50092
C         32.91038        45.87254        -0.15408
C         31.62086        46.23948         0.62002
C         31.46090        47.71911         0.80889
C         34.34564        20.99305         0.60998
C         35.71846        23.05353         0.99031
C         34.38249        22.35073         0.83521
C         35.65259        24.55840         0.81323
C         34.41361        25.21133         0.97281
C         35.62778        27.42266         0.47753
C         34.35863        26.66515         0.74084
C         35.62055        28.91430         0.64392
C         34.39121        29.56684         1.19907
C         35.70239        31.76361         1.27806
C         34.40805        31.05702         1.35859
C         35.65325        33.21668         1.46303
C         34.39903        33.93431         1.15171
C         35.69845        35.97617         0.61524
C         34.43229        35.26090         0.74671
C         35.70210        37.35260         0.25159
C         34.47466        38.00316        -0.04988
C         35.77936        40.18147        -0.30341
C         34.54642        39.39694        -0.53294
C         35.78070        41.65878        -0.65822
C         34.44069        42.34930        -0.47757
C         34.31818        43.73880        -0.28689
C         36.84934        25.27699         0.62847
C         38.10449        27.42569         0.64423
C         36.91296        26.70009         0.56796
C         38.17273        28.86507         0.75413
C         36.90845        29.65210         0.74246
C         38.16639        31.76554         1.14452
C         36.90390        31.07840         1.18538
C         38.20072        33.14880         1.02232
C         36.98751        33.94336         1.25415
C         38.16924        35.98301         0.49773
C         36.93883        35.32816         0.78403
C         38.15175        37.37699         0.25575
C         36.94290        38.07165         0.17500
C         36.92531        39.51314        -0.00515
C         39.36064        29.52687         0.90713
C         40.60412        31.70481         0.57716
C         39.46046        30.98987         1.26160
C         40.58931        33.03907         0.36785
C         39.40475        33.84524         0.63032
C         39.38594        35.21812         0.44401
O         20.31191        34.27774         2.72322
O         11.30934        30.75375        -0.83731
O         29.12148        41.72404        -2.92617
O         15.11956        19.03482        -0.28038
O         34.52440        30.09512         2.55285
O         36.41393        33.74490         2.59317
O         16.46859        27.73792         3.73275
O         23.37095        28.71121         3.55281
O         22.57136        24.86944         4.07774
O         27.53360        37.34618        -2.12854
O         17.18968        16.04165         2.29603
O         18.18540        29.06145         0.60705
O         14.39449        31.01090        -0.96479
O         27.37037        21.26101         3.21138
O         34.74734        27.02348        -0.63036
O         21.29953        29.19182         0.66334
O         36.16787        29.56568        -0.54707
O         28.32213        14.67201         1.57379
O         26.33939        44.06456        -3.39814
O         24.33144        17.68617        -0.54068
O         18.89002        38.16663         1.69431
O         32.84972        27.04883         2.65763
O         25.22556        22.45244         3.74187
O         14.11352        28.58399         0.09722
O         21.42120        20.32413         3.32189
O         14.71737        38.21851        -2.19362
O         18.88991        22.62645         3.73918
O         34.04499        39.57843        -1.95161
O         31.06166        18.81694        -1.13978
O         12.95201        40.84558        -3.08596
O         17.09791        22.23692         0.61331
O         22.35115         8.31917        -6.30176
O         31.80949        39.11483         0.86616
O         14.61517        42.89782        -3.18827
O         12.87624        33.25357        -1.26958
O         26.78810        28.48769        -0.74131
O         25.49356        24.96579         3.95923
O         23.95938        50.97027        -0.01980
O         24.93524        13.59181        -2.55531
O         21.08235        44.75008        -3.32147
O         18.76235        35.24385        -0.60824
O         24.00027        57.16103        -0.90669
O         20.43492        48.33070         0.11108
O         17.45440        33.77925         2.70747
O         28.75420        45.39874        -2.86404
O         22.97289        20.00749         0.17261
O         21.62367        37.97901         1.69718
O         17.14752        48.30803        -0.08436
O         21.71185        31.61259         3.24605
O         25.35258        48.48021        -3.08024
O         31.00573        31.51225         2.48767
O         14.42211        26.37932         3.79678
O         29.88637        44.48482         0.78313
O         21.10876        57.24425        -1.69670
O         23.38890        14.91374         1.85360
O         11.66262        25.40673         4.42060
H         12.41763        25.83988         4.87489
O         27.50123        33.95508         1.89017
H         26.76392        34.38413         2.37279
O         11.12471        24.96573         0.83280
H         10.39449        24.59641         0.29314
O         28.11635        33.01133        -1.58160
H         27.49238        32.28413        -1.84052
O         28.84863        11.13116        -3.62643
H         28.39624        11.82862        -4.14401
O         17.11040        43.72935         0.22187
H         17.12463        44.68454         0.44917
O         36.10870        41.74570        -2.06237
H         35.49432        41.13918        -2.53531
O         16.30118        48.08560        -3.73241
H         15.71711        48.51058        -4.39350
O         11.30940        29.66310         3.32530
H         10.64225        29.37461         3.98384
O         32.80744        46.43286        -1.46682
H         33.57078        46.13102        -2.00019
O         20.98369        45.38244         0.27521
H         20.95923        46.23922         0.75891
O         19.60274        16.37719         2.96572
H         18.69718        16.33224         3.35675
O         16.16616        40.83031        -3.29166
H         15.28168        40.56768        -3.63635
O         36.70009        22.48411         0.11963
H         36.42017        22.64409        -0.80483
O         26.62570        30.81477        -1.36232
H         26.74450        29.83935        -1.63250
O         19.64203        29.79492         3.93710
H         20.38919        30.37696         4.21188
O         11.09032        40.32950         1.22257
H         11.15033        39.42923         1.60955
O         21.74415        12.87580         1.40905
H         22.08746        13.36440         2.19394
O         24.84298        39.82799         1.32714
H         24.06314        39.47197         1.80755
O         26.04029        53.29480        -1.88470
H         26.80271        53.88948        -1.72164
O         29.97485        16.61521         2.16639
H         29.77530        15.70712         2.48978
O         31.78633        45.68294         1.94517
H         31.06585        45.01603         2.06540
O         25.41367        27.38019         3.82830
H         24.92008        27.12954         4.63688
O         26.12332        41.60263        -3.35305
H         26.00079        42.40782        -3.91622
O         39.80131        30.99389         2.69607
H         39.76867        31.92472         3.00429
O         23.51895        50.44841        -3.64688
H         24.30460        49.92289        -3.92759
O         17.46144        50.82257        -0.35129
H         16.85836        50.14104         0.04368
O         21.06008        35.92083        -1.19193
H         20.18664        35.66732        -1.58240
O         25.10502        26.75671         0.28409
H         25.64034        27.23976        -0.42312
O         21.91459        10.71850        -5.27555
H         22.00154        10.07556        -6.02331
O         26.50703        42.24414         0.21533
H         26.10129        41.80142         0.99375
O         23.97152        30.57968        -0.56221
H         24.77147        30.48446        -1.13833
O         25.45830        53.85869         2.53723
H         25.42719        52.89168         2.36997
O         17.68891        50.26234        -3.78502
H         18.40297        50.90760        -4.03632
O         19.73679        51.90899        -3.69709
H         20.65553        51.56855        -3.78387
O         20.65721        23.25870         0.58633
H         21.37208        23.82975         0.23370
O         16.43468        38.70482         1.52761
H         17.22206        38.85910         2.10489
O         18.76812        43.76268        -3.04466
H         20.25317        44.51776        -3.80627
O         26.59712        12.86312         0.85457
H         27.00796        13.23335         1.66947
O         32.89480        33.46299         2.92487
H         32.12799        32.89665         3.19086
O         22.42336         8.19413        -2.65240
H         23.18474         7.62536        -2.41124
O         19.32216        11.76175         0.71501
H         20.16521        11.95198         1.20022
O          9.48783        33.42380        -1.53908
H         10.38216        33.46659        -1.94469
O         26.72251        16.42920         2.57830
H         27.07246        15.53538         2.79625
O         24.18356        34.73808        -1.46159
H         23.21055        34.82794        -1.57809
H          5.06079        31.40368         1.76914
H          5.06236        33.75558         0.99595
H          7.42909        27.24404         2.71589
H          6.27153        29.34945         2.30977
H          6.29717        35.74505         0.28164
H          7.53520        37.83783        -0.17660
H          9.81879        22.68976         2.28617
H          8.56884        24.97303         2.58946
H          8.78752        39.95363        -0.52293
H         10.19237        42.22267        -0.41278
H         12.25693        18.52553         1.40717
H         11.06328        20.57339         1.87701
H         11.21442        44.17390        -1.30350
H         12.43136        46.30837        -1.65703
H         14.71834        14.44898        -0.30520
H         13.46271        16.42447         0.37356
H         13.66195        48.39761        -2.09928
H         15.10105        50.51485        -1.69066
H         17.05508        10.97560        -2.56078
H         15.88994        12.65705        -1.29583
H         16.02063        52.76355        -2.29887
H         17.14487        54.67925        -1.60812
H         19.29864         7.53122        -5.08257
H         18.17884         9.30341        -3.88005
H         18.13271        56.53451        -0.46858
H         19.18360        58.53723         0.69782
H         22.51368         4.27713        -6.58718
H         20.44594         5.59234        -6.29505
H         22.11800        61.57450         2.88710
H         20.16086        60.49539         1.79151
H         24.69962         5.07303        -5.74231
H         26.03692         6.78074        -4.44016
H         25.72485        58.54707         2.33131
H         24.36315        60.50011         2.80373
H         27.39072         8.45969        -3.43217
H         28.59975        10.04253        -1.90182
H         28.29846        54.34688         1.87524
H         26.88924        56.35572         2.33287
H         30.25471        12.14426        -1.36943
H         31.45946        14.21959        -0.90698
H         30.98622        50.25581         1.42052
H         29.66965        52.32008         1.58891
H         32.67242        16.21891        -0.66336
H         34.03260        18.32188         0.34256
H         33.80211        46.30585         0.37992
H         32.27291        48.24540         1.33371
H         35.29043        20.44491         0.47838
H         36.08124        22.85501         2.03971
H         36.58408        42.19584        -0.09530
H         35.22410        44.34692        -0.14158
H         37.78989        24.70659         0.59024
H         39.05427        26.87143         0.70173
H         39.10090        37.91612         0.12146
H         37.87603        40.05921         0.09204
H         40.29979        28.95154         0.92638
H         41.51461        31.12503         0.36258
H         41.47240        33.54498        -0.05163
H         40.31404        35.73688         0.16078
