         324
 CSIRO Nanostructure Databank - Neutral Graphene Oxide Data Set
C         30.42216        56.76372        -0.00848
C         30.40273        57.92047        -0.82176
C         29.26601        58.25371        -1.61714
C         30.41437        60.15676        -2.61455
C         29.34087        59.29625        -2.56449
C         32.99825        53.27913         1.82291
C         32.81838        54.73687         2.25144
C         31.61024        55.24804         1.52450
C         32.82134        57.09578         0.42103
C         31.60274        56.35349         0.67019
C         32.79213        58.28035        -0.36995
C         31.57429        58.73334        -0.92455
C         32.81494        60.54835        -2.12712
C         31.49828        60.08825        -1.57965
C         35.43063        49.10899         0.79403
C         35.36526        50.35450         1.43522
C         34.27593        51.22024         1.27255
C         35.30198        52.90879         2.69743
C         34.16545        52.50316         1.92143
C         35.28916        55.16525         2.41848
C         34.06966        55.52278         1.87579
C         35.27014        57.23464         0.55965
C         34.04739        56.62023         0.95532
C         35.22567        58.38956        -0.26410
C         34.02115        58.95728        -0.67498
C         35.24708        60.75940        -1.87702
C         34.03084        60.10287        -1.59711
C         37.79287        44.84779        -0.21797
C         37.79255        46.17784         0.33962
C         36.61255        46.98503         0.36499
C         37.76353        48.80905         1.56770
C         36.58580        48.28059         0.91449
C         37.82171        50.10464         2.11293
C         36.46575        50.69971         2.42374
C         37.72969        52.82746         2.85024
C         36.52134        52.17804         2.68158
C         37.79972        55.06369         2.31427
C         36.54689        55.66626         1.96785
C         37.77378        57.14236         0.47719
C         36.53382        56.68528         0.97760
C         37.78481        58.30540        -0.42146
C         36.48709        58.96775        -0.76991
C         37.76574        60.99543        -1.49739
C         36.44780        60.45785        -1.02771
C         40.21205        40.64538        -1.33099
C         40.18196        42.01360        -0.91937
C         38.97516        42.71012        -0.73944
C         40.23853        44.68547         0.05770
C         38.94165        44.05997        -0.27876
C         40.24374        46.04174         0.72351
C         38.96046        46.68910         0.93871
C         40.28683        48.65926         1.96959
C         38.93062        47.95102         1.66654
C         40.30163        50.11638         2.12215
C         39.06106        50.75414         2.42366
C         40.31168        53.06934         2.47695
C         39.05727        52.21761         2.71729
C         40.21794        54.37992         1.59757
C         39.00439        55.33877         1.68392
C         40.22287        57.14694         0.44527
C         39.00784        56.52740         0.84435
C         40.22335        58.45178        -0.15644
C         39.02132        59.07334        -0.54267
C         40.21349        61.09673        -1.24205
C         38.98129        60.39475        -1.12040
C         42.59024        36.36991        -1.81764
C         42.59809        37.77003        -1.78577
C         41.41124        38.51320        -1.65595
C         42.69883        40.63028        -1.44088
C         41.39724        39.91930        -1.49420
C         42.72534        42.02040        -0.87548
C         41.43486        42.63879        -0.51389
C         42.67970        44.36049         0.75283
C         41.44403        43.84467         0.12742
C         42.69603        45.75855         1.31999
C         41.47942        46.58786         1.30941
C         42.74619        48.65457         1.71846
C         41.52220        47.94276         1.62709
C         42.76068        50.06461         1.83926
C         41.54031        50.79515         1.99179
C         42.86589        52.97623         1.83814
C         41.66829        52.23833         2.45739
C         42.84002        54.43501         1.47847
C         41.53267        55.19699         1.53197
C         42.74404        57.11112         0.27059
C         41.50619        56.55817         0.88432
C         42.69739        58.45823        -0.26266
C         41.45794        59.14679        -0.38936
C         42.66450        61.21227        -0.98068
C         41.43595        60.49734        -0.87636
C         44.95586        33.46034        -1.89536
C         43.76633        34.20077        -1.93196
C         45.06680        36.27909        -1.74556
C         43.78768        35.60767        -1.86446
C         45.12344        37.66758        -1.66449
C         43.91128        38.48982        -2.00806
C         45.15863        40.47881        -1.08645
C         43.95142        39.86271        -1.39576
C         45.21233        41.82504        -0.53388
C         43.98612        42.54660        -0.29429
C         45.20352        44.22780         1.14935
C         43.96591        43.70714         0.44687
C         45.18835        45.74420         1.30932
C         44.00506        46.42926         1.46017
C         45.30000        48.60873         1.69832
C         43.98709        47.86651         1.79603
C         45.25495        50.04262         1.37740
C         44.02469        50.77520         1.59175
C         45.13021        52.78405         0.60330
C         44.01144        52.15320         1.39677
C         45.17907        54.29693         0.59758
C         44.00555        55.02228         0.74215
C         45.10966        56.92588        -0.42908
C         43.92721        56.38560         0.27440
C         45.08542        58.35105        -0.92921
C         43.87576        59.12540        -0.66110
C         45.15439        61.22171        -0.91206
C         43.88586        60.54261        -0.86614
C         46.19192        34.08561        -1.76471
C         47.51734        36.16119        -1.53494
C         46.28232        35.49930        -1.67248
C         47.59248        37.56496        -1.41074
C         46.36576        38.34670        -1.45304
C         47.67772        40.46936        -1.23171
C         46.38812        39.72685        -1.22266
C         47.68102        41.76262        -0.47127
C         46.44543        42.41548        -0.16114
C         47.68890        44.30617         0.80770
C         46.48404        43.68155         0.54306
C         47.70743        45.59615         1.62123
C         46.46060        46.43638         1.42239
C         47.79268        48.57947         1.59430
C         46.51073        47.80288         1.47203
C         47.70981        49.86527         0.75736
C         46.46124        50.70649         1.04624
C         47.68284        52.86182         0.78280
C         46.44637        52.09311         0.83961
C         47.68234        54.26298         0.30221
C         46.42128        54.96093         0.23157
C         47.63028        57.03046        -0.44187
C         46.41205        56.28628        -0.20286
C         47.62504        58.36145        -0.84024
C         46.37303        59.06564        -1.32139
C         47.60204        61.22221        -0.88483
C         46.36279        60.54233        -0.97782
C         48.81907        38.22159        -1.18291
C         50.09929        40.25683        -0.72455
C         48.89615        39.61902        -1.01042
C         50.14688        41.63900        -0.36492
C         48.90063        42.35662        -0.14649
C         50.17754        44.27210         0.70975
C         48.94152        43.66763         0.45790
C         50.26230        45.57153         1.46850
C         48.98246        46.38675         1.38723
C         50.26688        48.43190         0.78822
C         49.00193        47.73264         1.25339
C         50.23057        49.94372         0.88473
C         49.01055        50.62101         0.82279
C         50.17985        52.71658         0.12773
C         48.99621        52.08816         0.77932
C         50.16746        54.19800        -0.25735
C         48.87524        54.93401         0.05006
C         50.10493        57.06839        -0.21594
C         48.88974        56.34274        -0.21362
C         50.13659        58.44143        -0.53944
C         48.91703        59.07437        -1.16626
C         50.04406        61.28576        -0.79110
C         48.84599        60.56991        -0.90130
C         51.35982        42.27553        -0.13150
C         52.63301        44.29343         0.45101
C         51.41028        43.61915         0.34866
C         52.69005        45.69282         0.77490
C         51.51296        46.34588         1.15658
C         52.77539        48.51603         1.16722
C         51.49702        47.79719         1.49484
C         52.73751        49.98029         1.18851
C         51.45480        50.65549         0.93357
C         52.74477        52.76767         0.25516
C         51.48192        52.01423         0.39330
C         52.70749        54.21062         0.12509
C         51.40263        54.90770         0.27849
C         52.63378        57.16461         0.19318
C         51.34488        56.40856         0.26681
C         52.59344        58.56541        -0.28262
C         51.32875        59.19882        -0.49708
C         52.51938        61.34103        -0.75337
C         51.30827        60.62877        -0.72176
C         53.91389        46.41921         0.68072
C         55.19521        48.55251         0.61664
C         53.96026        47.83015         0.84891
C         55.25605        49.93560         0.55903
C         54.02573        50.72129         0.82235
C         55.17631        52.73953        -0.25825
C         53.93897        52.09036         0.29125
C         55.16244        54.23889        -0.09048
C         53.90280        54.91647         0.02741
C         55.14148        57.07131        -0.40965
C         53.93007        56.39225         0.09524
C         55.03858        58.50532        -0.73732
C         53.77979        59.24843        -0.51385
C         54.99726        61.39622        -0.70147
C         53.77627        60.68012        -0.70752
C         56.46119        50.68170         0.36920
C         57.63639        52.84628         0.18279
C         56.46314        52.07112         0.16899
C         57.63065        54.25395        -0.02748
C         56.35511        54.94743        -0.18500
C         57.62531        57.06421        -0.67089
C         56.33184        56.37655        -0.44794
C         57.62485        58.57969        -0.81056
C         56.31662        59.30061        -0.92174
C         57.44630        61.41892        -0.32514
C         56.26259        60.75446        -0.63924
C         58.81727        55.00188         0.05758
C         59.99010        57.17733         0.05325
C         58.84978        56.40840        -0.15358
C         59.97504        58.61652         0.01973
C         58.78645        59.32163        -0.30291
C         59.85338        61.43262         0.28007
C         58.69584        60.72968        -0.12970
C         61.11255        59.36199         0.41976
C         61.04614        60.75005         0.52845
O         44.82591        57.22874        -1.85727
O         57.86486        57.70833        -1.96299
O         39.53835        47.94586         2.99758
O         40.50189        45.88193        -0.76884
O         39.82233        52.92521         3.80688
O         37.11467        58.12250        -1.77058
O         47.87151        40.88611        -2.74977
O         48.53643        52.73164         2.00265
O         51.18436        55.64422         1.51382
O         53.47168        56.98338         1.37725
O         43.29952        54.02241         2.81489
O         53.58163        50.62579         2.21751
O         42.53250        44.57392         2.23031
O         37.72318        54.11512         3.34160
O         50.71720        51.93238        -0.96553
O         42.79401        41.80535        -2.33249
O         55.55828        58.86951        -2.07930
O         41.58939        56.36995         2.37590
O         35.30532        54.10905         3.36874
O         44.72793        48.24027         3.01073
O         46.42605        59.02828        -2.78996
H         46.00439        58.17366        -3.05022
O         50.26693        54.28249        -1.70399
H         50.63244        53.41836        -2.01683
O         45.17686        43.71436         2.53121
H         44.27268        43.93001         2.87557
O         36.21066        61.05617         0.30950
H         35.98160        62.00049         0.17826
O         47.57479        49.40951        -0.63387
H         47.56551        50.20123        -1.21343
O         47.66823        45.17590         3.02695
H         46.85684        44.61435         3.13078
O         36.04655        50.09064         3.69089
H         36.84042        49.98593         4.25719
O         42.04068        52.05533         3.83979
H         42.44133        52.89812         4.15341
O         55.09816        52.52495        -1.71977
H         55.86761        52.98203        -2.12265
O         50.40163        48.13669        -0.62661
H         49.59976        48.49200        -1.07268
O         31.12724        61.04858        -0.49345
H         30.26848        60.74630        -0.12723
O         51.27649        47.92560         2.93259
H         51.03363        47.03157         3.27940
O         43.98095        38.71467        -3.46446
H         44.74327        39.30996        -3.63377
O         46.72247        41.63840        -3.15111
H         46.98251        42.57588        -2.97702
O         44.76375        52.48330        -0.82121
H         44.70951        51.50596        -0.90147
O         40.09529        53.77234         0.26921
H         39.92517        54.48410        -0.38555
O         49.12311        58.92992        -2.61306
H         48.23844        59.08557        -3.03356
O         47.93450        48.99955         2.96722
H         47.80795        48.22148         3.54937
O         50.38684        45.23377         2.90645
H         49.47829        44.98567         3.22043
O         32.58540        54.83075         3.68112
H         33.39798        54.51133         4.13256
H         29.50994        56.15559         0.08418
H         28.37088        57.61820        -1.56987
H         30.44114        60.96897        -3.35525
H         28.50928        59.42576        -3.27320
H         32.19122        52.85045         1.20600
H         30.65948        54.72628         1.71561
H         32.81351        61.37801        -2.85114
H         34.58984        48.77083         0.17047
H         33.44955        50.90597         0.61708
H         35.27773        61.56412        -2.62751
H         36.83499        44.43125        -0.56334
H         35.69862        46.59377        -0.10664
H         37.79289        62.01947        -1.90347
H         39.25190        40.12121        -1.45496
H         38.02841        42.21710        -1.00644
H         40.21241        62.12542        -1.63118
H         41.62809        35.83824        -1.75224
H         40.45145        37.97325        -1.63075
H         42.64710        62.28455        -1.22300
H         44.90836        32.36404        -1.96063
H         42.80162        33.67994        -2.01590
H         45.15960        62.31792        -0.81151
H         47.11233        33.48530        -1.72701
H         48.44552        35.57084        -1.50670
H         47.58444        62.31755        -0.76270
H         49.73512        37.62240        -1.06922
H         51.03292        39.67474        -0.70648
H         50.01249        62.38483        -0.72822
H         52.30222        41.74160        -0.32307
H         53.56130        43.77243         0.17446
H         52.49589        62.43510        -0.86834
H         54.83382        45.88050         0.41097
H         56.10478        47.96445         0.42360
H         54.96202        62.49553        -0.65783
H         57.42287        50.15085         0.45047
H         58.59634        52.35625         0.40774
H         57.41953        62.50389        -0.14274
H         59.75448        54.48514         0.31480
H         60.91708        56.67985         0.37733
H         59.80703        62.52425         0.40063
H         62.04695        58.83395         0.65765
H         61.93777        61.31337         0.83767
