         648
 CSIRO Nanostructure Databank - Neutral Graphene Oxide Data Set
C          5.82787        31.64071        -0.45140
C          5.85561        32.97607        -0.18387
C          8.22984        27.41856        -0.91455
C          8.22130        28.80581        -1.06463
C          7.01694        29.54620        -0.93038
C          8.23499        31.68597        -1.05477
C          7.02430        30.94183        -0.84382
C          8.27719        33.04647        -0.75879
C          7.08271        33.72218        -0.28950
C          8.33887        35.81567        -0.02869
C          7.11908        35.06974         0.02724
C          8.37186        37.14040         0.38169
C         10.80812        23.44058         0.27261
C         10.72708        24.60729        -0.42409
C          9.47678        25.32011        -0.60167
C         10.74485        27.44909        -0.84706
C          9.44425        26.67701        -0.85953
C         10.65047        28.86365        -1.37132
C          9.46423        29.52210        -1.35958
C         10.71698        31.70511        -1.53699
C          9.39584        30.98591        -1.74477
C         10.67338        33.21064        -1.63302
C          9.48656        33.82727        -0.92122
C         10.72420        35.99816        -0.90171
C          9.52486        35.14768        -0.54877
C         10.89533        37.16801         0.04109
C          9.64909        37.82489         0.60082
C         10.92690        39.93862         0.84589
C          9.72502        39.24717         0.90916
C         10.98601        41.31574         1.22586
C         13.29958        19.16904         0.50246
C         13.38775        20.61691         0.58195
C         12.20041        21.33538         0.44768
C         13.34619        23.55913         0.21495
C         12.10544        22.81955         0.72901
C         13.23766        24.61445        -0.76980
C         11.93190        25.18418        -1.07795
C         13.15136        27.41628        -1.62804
C         11.88560        26.67048        -1.47369
C         13.17406        28.78483        -1.59658
C         11.89767        29.55051        -1.88184
C         13.17593        31.73776        -1.53955
C         11.92245        31.03586        -1.56518
C         13.22173        33.15243        -1.45142
C         11.99084        33.87909        -1.31197
C         13.26090        35.94286        -0.96942
C         12.02023        35.22854        -1.01765
C         13.28661        37.33857        -0.63803
C         12.11289        37.98012        -0.12376
C         13.35780        40.04191         0.26217
C         12.13856        39.29548         0.34364
C         13.38808        41.40334         0.68827
C         12.17133        42.04851         1.17044
C         13.40173        44.15962         1.57060
C         12.22029        43.40229         1.60432
C         13.46550        45.48662         1.99653
C         15.94213        14.98727         1.64116
C         15.81739        16.48368         1.77928
C         14.63837        17.00447         0.96068
C         16.08473        19.44361         1.25160
C         14.23937        18.31674         1.12285
C         15.92710        20.67982         0.59326
C         14.65858        21.34313         0.58009
C         15.83089        23.29740        -0.54458
C         14.68016        22.76777         0.22436
C         15.76366        24.55499        -1.17388
C         14.43315        25.17181        -1.39749
C         15.64420        27.37908        -2.15256
C         14.37288        26.63508        -1.88952
C         15.71221        28.83067        -1.93516
C         14.46178        29.51897        -1.53804
C         15.69498        31.75375        -1.82596
C         14.45735        31.01930        -1.50973
C         15.70804        33.14497        -1.74861
C         14.46437        33.85542        -1.48275
C         15.67896        36.02406        -1.47970
C         14.47303        35.26862        -1.30495
C         15.67673        37.38809        -1.21008
C         14.50337        38.05792        -0.71831
C         15.73652        40.18049        -0.30702
C         14.53119        39.43119        -0.27491
C         15.77742        41.49159         0.20534
C         14.59190        42.11543         0.66055
C         15.92505        44.00784         1.63722
C         14.63883        43.60387         0.91061
C         15.97073        45.50607         1.90461
C         14.70258        46.21241         2.07801
C         15.87612        48.31917         2.67652
C         14.68103        47.58912         2.27198
C         15.92524        49.78547         2.64226
C         18.36731        10.78163         2.31426
C         18.37831        12.17188         2.06587
C         17.17034        12.87151         1.84258
C         18.40609        14.99058         1.59335
C         17.14890        14.28812         1.68531
C         18.38701        16.45116         1.51201
C         17.13189        17.20827         1.43212
C         18.39636        19.18168         0.51967
C         17.21323        18.58047         1.10857
C         18.32403        20.51706         0.01409
C         17.11014        21.26147         0.02772
C         18.23376        23.18524        -1.03760
C         17.05246        22.57063        -0.54010
C         18.18087        24.51301        -1.52898
C         16.95046        25.18406        -1.65240
C         18.16249        27.41056        -2.01800
C         16.94481        26.59364        -2.13932
C         18.14550        28.78609        -2.12899
C         16.90210        29.52278        -2.07248
C         18.19032        31.77209        -2.20185
C         16.88324        31.01677        -2.38805
C         18.16488        33.17109        -2.10287
C         16.94262        33.86919        -1.92497
C         18.19964        36.05646        -1.75375
C         16.89131        35.37259        -2.13234
C         18.20202        37.48767        -1.56380
C         16.89936        38.18177        -1.46151
C         18.27678        40.21387        -0.67541
C         16.91731        39.61510        -0.99660
C         18.17525        41.72046        -0.54505
C         17.02249        42.25749         0.22892
C         18.41422        44.13677         1.01284
C         17.10487        43.47646         0.83751
C         18.46086        45.45925         1.74078
C         17.17342        46.16103         2.03728
C         18.48866        48.32454         2.62045
C         17.21431        47.52445         2.61190
C         18.41438        49.82735         2.74185
C         17.09962        50.52295         2.69754
C         18.28636        52.71582         2.56892
C         17.09860        51.94806         2.65488
C         18.26262        54.12968         2.58442
C         20.91247         6.63751         3.63951
C         20.79745         7.94857         3.03989
C         19.60773         8.62789         2.98391
C         20.90732        10.85725         2.54965
C         19.54714        10.09176         2.77959
C         20.85746        12.19710         1.95869
C         19.63444        12.88744         1.90687
C         20.85234        14.91198         1.14174
C         19.62486        14.28540         1.56751
C         20.86711        16.27127         0.72625
C         19.70432        17.12505         1.03469
C         20.75452        18.99771        -0.19522
C         19.60759        18.44874         0.40668
C         20.72266        20.37212        -0.60199
C         19.50239        21.12412        -0.52708
C         20.70235        23.12687        -1.29452
C         19.47420        22.46067        -0.99046
C         20.72800        24.52528        -1.52819
C         19.45009        25.19665        -1.86466
C         20.63797        27.46236        -1.64255
C         19.43979        26.68184        -2.04781
C         20.69634        28.87611        -1.99610
C         19.42648        29.52221        -2.37087
C         20.81456        31.71741        -2.50427
C         19.42788        31.03789        -2.51234
C         20.74574        33.25265        -2.32710
C         19.40457        33.99340        -2.45978
C         20.60854        36.07525        -1.23703
C         19.38787        35.36595        -1.79396
C         20.64404        37.55289        -1.52265
C         19.40525        38.22058        -1.59003
C         20.70608        40.40023        -1.46617
C         19.35790        39.73121        -1.67837
C         20.67408        41.86458        -1.21998
C         19.45103        42.49311        -0.60665
C         20.80021        44.40113         0.29250
C         19.58446        43.69223         0.23636
C         20.85071        45.69218         0.83616
C         19.74065        46.25403         1.63871
C         20.85343        48.59849         1.66980
C         19.74988        47.69872         2.07922
C         20.83912        49.94412         2.00085
C         19.61223        50.62397         2.39373
C         20.77659        52.77519         2.18330
C         19.54568        51.99747         2.40383
C         20.72438        54.25848         2.22364
C         19.43226        54.95623         2.48173
C         20.65984        57.20312         2.56178
C         19.41327        56.33482         2.53617
C         20.58290        58.49684         1.77917
C         23.44830         4.34545         5.05809
C         22.22125         4.84589         4.69601
C         23.36634         6.38703         3.07441
C         22.11618         5.99719         3.84281
C         23.33372         7.83491         2.59550
C         22.04863         8.59363         2.56602
C         23.26499        10.63049         1.84542
C         22.11616        10.05845         2.37603
C         23.25796        12.00283         1.37226
C         22.05900        12.77855         1.45950
C         23.23093        14.70515         0.46659
C         22.04657        14.13299         1.00543
C         23.21726        16.06817        -0.01807
C         22.00030        16.83891         0.11424
C         23.10433        18.78287        -0.91910
C         21.98060        18.22102        -0.32743
C         23.11255        20.20801        -1.26003
C         21.90488        21.00777        -1.01106
C         23.15991        23.12632        -1.27983
C         21.93130        22.41537        -1.21815
C         23.17517        24.52400        -1.39813
C         21.93938        25.22668        -1.52908
C         23.15910        27.47988        -1.43284
C         21.92814        26.70320        -1.39753
C         23.10793        28.86799        -1.34957
C         21.87182        29.59756        -1.65444
C         23.00089        31.71467        -1.05077
C         21.85145        31.00902        -1.62356
C         23.07987        33.25472        -1.15041
C         21.94095        33.97227        -1.79508
C         23.12844        36.09319        -1.53921
C         21.92087        35.41682        -1.50360
C         23.12019        37.53923        -1.57027
C         21.89150        38.24246        -1.58013
C         23.18204        40.42269        -1.75917
C         21.88556        39.70610        -1.62036
C         23.21543        41.89402        -1.47000
C         21.95593        42.61320        -1.11193
C         23.29593        44.56001        -0.33935
C         22.09521        43.68205        -0.03761
C         23.27753        45.94738         0.03125
C         21.99229        46.55778         0.48338
C         23.26007        48.76552         0.82404
C         21.96485        48.01042         0.87363
C         23.30989        50.09461         1.48887
C         22.06393        50.72767         1.97878
C         23.34063        52.81674         2.47377
C         22.07026        52.06444         2.27031
C         23.30148        54.31412         2.57633
C         21.98412        55.00899         2.52335
C         23.15433        57.18919         1.84524
C         21.90760        56.44211         2.12265
C         23.09364        58.70201         1.88041
C         21.71497        59.20198         1.45973
C         22.79375        61.14333         0.40064
C         21.64970        60.48598         0.81702
C         24.66980         4.95433         4.63102
C         25.87189         6.65799         3.29912
C         24.66858         6.02238         3.75969
C         25.85164         7.89039         2.67195
C         24.57775         8.69250         2.76647
C         25.67089        10.42737         1.31741
C         24.52456         9.91693         1.88538
C         25.59833        11.67029         0.45639
C         24.41494        12.55034         0.80199
C         25.63309        14.49366        -0.08735
C         24.42335        13.91289         0.38483
C         25.58488        15.81875        -0.70375
C         24.35054        16.61183        -0.62801
C         25.63756        18.76102        -0.69859
C         24.36581        18.00556        -1.22253
C         25.70262        20.22670        -1.06858
C         24.43582        20.94818        -1.31134
C         25.67953        23.11666        -1.14861
C         24.39886        22.38895        -0.85757
C         25.63289        24.55456        -1.24188
C         24.43874        25.24551        -1.36627
C         25.52078        27.39534        -0.71410
C         24.47245        26.75039        -1.60248
C         25.49238        28.88247        -0.54139
C         24.30958        29.63188        -1.03427
C         25.48197        31.73503        -0.38578
C         24.27443        30.99342        -0.84662
C         25.54789        33.25797        -0.60592
C         24.36005        33.94453        -1.14458
C         25.63130        35.99698        -1.49557
C         24.40277        35.33214        -1.48040
C         25.67317        37.41602        -1.88357
C         24.39474        38.22809        -1.87861
C         25.68531        40.38168        -1.81510
C         24.49356        39.70649        -1.75415
C         25.70413        41.93385        -1.74232
C         24.51569        42.41619        -0.88445
C         25.70489        44.65912        -0.91085
C         24.45578        43.92424        -0.73944
C         25.71080        46.12770        -0.49403
C         24.45586        46.69597         0.03098
C         25.74234        48.67279         0.70140
C         24.52112        48.02725         0.55888
C         25.83501        50.01744         1.32728
C         24.62680        50.68937         1.84913
C         25.84808        52.94989         1.79243
C         24.65125        52.15209         2.18461
C         25.81334        54.36157         1.89035
C         24.59446        55.07550         2.34504
C         25.64669        57.23666         1.38894
C         24.50292        56.55418         2.03879
C         25.45991        58.58314         0.95826
C         24.24883        59.28450         1.08058
C         24.07136        60.54677         0.48826
C         26.99798         8.49646         2.06670
C         28.09139        10.23735         0.62084
C         26.92111         9.71458         1.41898
C         28.12246        11.74767         0.54144
C         26.89822        12.44208         0.41079
C         28.13279        14.51624        -0.10316
C         26.88523        13.81280         0.05187
C         28.17425        15.88821        -0.48088
C         26.92247        16.52770        -0.95125
C         28.18091        18.76902        -1.10156
C         26.89353        18.02069        -1.12785
C         28.15994        20.24374        -0.92898
C         26.89138        20.93966        -1.05639
C         28.12308        23.14694        -1.01233
C         26.87477        22.41043        -1.15277
C         28.13599        24.50711        -0.84972
C         26.94291        25.31885        -1.30609
C         28.01458        27.35785        -0.09193
C         26.80209        26.63342        -0.55056
C         27.93927        28.84325         0.14698
C         26.74478        29.61828        -0.24579
C         28.02524        31.74793        -0.13082
C         26.77258        30.99921        -0.25200
C         28.03014        33.20228        -0.40028
C         26.88583        33.88313        -0.74572
C         28.06260        36.13186        -0.84882
C         26.95545        35.25616        -1.41786
C         28.06547        37.50544        -1.02468
C         27.03849        38.09474        -1.97067
C         28.27086        40.40360        -1.68909
C         26.98447        39.65100        -1.97037
C         28.29844        41.94779        -1.61842
C         26.98242        42.56612        -1.21741
C         28.20478        44.61362        -0.53736
C         26.98004        43.89720        -0.87279
C         28.21930        45.98838        -0.23972
C         26.99346        46.73621        -0.09587
C         28.26005        48.64186         0.97186
C         26.98587        48.00915         0.45286
C         28.27688        50.14885         0.88044
C         26.97081        50.87264         0.82794
C         28.21171        53.02420         1.10411
C         27.00275        52.29277         1.33584
C         28.15131        54.43983         1.15663
C         26.94964        55.11905         1.46092
C         26.84010        56.53926         1.23588
C         29.32910        12.43643         0.45105
C         30.58323        14.54041         0.09565
C         29.36130        13.83091         0.16132
C         30.62201        15.91147        -0.21015
C         29.39733        16.58317        -0.52717
C         30.74930        18.77917        -0.63647
C         29.47164        18.00767        -0.92980
C         30.59124        20.25202        -0.49184
C         29.36470        20.92055        -0.83152
C         30.67860        23.13571        -0.77127
C         29.39860        22.38968        -0.98597
C         30.65385        24.57753        -0.50177
C         29.32057        25.20080        -0.18245
C         30.56244        27.40766         0.07838
C         29.33774        26.71120        -0.47988
C         30.51757        28.78061         0.21711
C         29.25218        29.58961         0.25225
C         30.53208        31.73671        -0.15742
C         29.22457        31.04894        -0.00404
C         30.57968        33.21034         0.02659
C         29.35731        33.96203        -0.52119
C         30.03401        36.26451         0.49338
C         29.16230        35.45613        -0.17649
C         30.16196        37.75717         0.38804
C         29.19062        38.32677        -0.62012
C         30.59544        40.34358        -0.66521
C         29.35710        39.64790        -0.99555
C         30.67462        41.75992        -0.72870
C         29.45990        42.53534        -0.85330
C         30.65903        44.50705         0.15987
C         29.42186        43.84640        -0.43522
C         30.75102        45.95837        -0.32262
C         29.47283        46.70463        -0.05588
C         30.73801        48.76667         0.50580
C         29.49709        48.00744         0.38799
C         30.71007        50.14495         0.71101
C         29.46657        50.87729         0.80259
C         29.41571        52.30796         0.82453
C         31.87436        16.62369        -0.20225
C         33.31468        18.59439        -0.35098
C         31.99735        18.00634        -0.28058
C         33.54467        19.93523         0.01391
C         31.63039        21.02873         0.01842
C         33.08885        23.04262        -0.08744
C         31.84293        22.40172        -0.24248
C         33.10178        24.48994        -0.16491
C         31.82968        25.22611        -0.20954
C         33.03659        27.31887         0.13879
C         31.80938        26.65808         0.07871
C         33.07581        28.75839         0.39578
C         31.75656        29.51316         0.48232
C         33.08124        31.63564         0.30691
C         31.79391        30.94796         0.09109
C         33.07600        33.04667         0.25240
C         31.81374        33.77443         0.27096
C         33.05119        35.93374         0.21302
C         31.98925        35.17729         0.60012
C         32.99854        37.42237         0.19143
C         31.65445        38.22299         0.17245
C         33.01798        40.27345        -0.26096
C         31.75864        39.61973        -0.30371
C         33.08165        41.69475        -0.33451
C         31.90280        42.43012        -0.52843
C         33.19423        44.54360        -0.01653
C         31.90956        43.93137        -0.52104
C         33.18276        45.92687         0.25592
C         31.99027        46.67228         0.17449
C         31.96508        48.04067         0.44007
C         34.51495        20.89218        -0.30641
C         35.54431        23.07883        -0.06150
C         34.36650        22.31786        -0.09322
C         35.56948        24.50026         0.09713
C         34.30494        25.20496        -0.12326
C         35.34215        27.43871        -0.66775
C         34.25293        26.64742        -0.22326
C         35.45826        28.82268        -0.28408
C         34.31712        29.49426         0.12447
C         35.52562        31.63973         0.20609
C         34.29077        30.92833         0.24620
C         35.50903        33.05738         0.35350
C         34.28295        33.76225         0.18465
C         35.38222        35.89540        -0.93761
C         34.22061        35.17085        -0.31392
C         35.35746        37.39525        -0.86254
C         34.19249        38.11660        -0.34640
C         35.52083        40.20713        -0.25091
C         34.24385        39.51210        -0.29139
C         35.52236        41.62408        -0.04530
C         34.35196        42.36922        -0.11648
C         34.35576        43.78314         0.07930
C         36.77843        25.11032         0.47190
C         37.93683        27.33330         0.55263
C         36.94332        26.47710         0.96991
C         37.87212        28.83622         0.73928
C         36.81961        29.48447        -0.27477
C         37.96033        31.65569         0.13743
C         36.75482        30.95410         0.06209
C         37.96702        33.07123         0.31898
C         36.74759        33.71126         0.60677
C         37.97622        35.93596        -0.68340
C         36.75167        35.28282        -1.28975
C         37.94159        37.28680        -0.48669
C         36.74500        38.12002        -0.73059
C         36.71251        39.48909        -0.24601
C         39.19161        29.56567         0.47433
C         40.44198        31.69737         0.15272
C         39.22014        30.90905         0.20634
C         40.42709        33.05853         0.08271
C         39.18893        33.82291         0.05424
C         39.16752        35.14585        -0.35600
O         22.63867         7.94963         1.33126
O         21.05142        27.13342        -0.27196
O         34.33826        35.31649        -1.78255
O         30.97226        35.73819         1.37469
O         32.53095        20.40875         0.87661
O         22.59783        54.73177         3.80435
O         31.71013        44.44994        -1.89953
O         32.47570        29.17513         1.69367
O         25.52220        49.95549         2.75276
O         22.36021        56.64125         0.74243
O         14.32599        23.75648         1.28947
O         21.50340        47.61281        -0.46751
O         19.33841        17.10434         2.43702
O         21.12521        42.81572        -2.27682
O         28.46533        29.23203         1.45388
O         30.39533        18.33679        -2.00890
O         25.04436        27.94102         0.53168
O         24.19193        52.31280         3.56734
O         22.66422        32.60038         0.08789
O         26.26543        15.82695        -2.03068
O         16.25478        26.90398        -3.39161
O         24.81468        56.08693         3.38159
O         14.19063        25.53624        -2.80738
O         23.17842        49.98959         0.00934
O         27.21049        26.57193         0.84806
O         19.54986        25.80637        -3.21837
O         20.27680        10.78698         3.85868
O         25.67014        45.72662        -1.90613
O         22.38339        42.97508         1.16678
O         20.24059        46.64229         2.98227
O         31.31001        31.17417        -1.28605
O         19.31928        30.16729        -3.71450
O         18.41523        42.55742        -1.70861
O         32.44634        38.04629         1.39685
O         21.74793        33.81863        -3.24864
O         20.74708        53.59417         0.91901
O         23.20671        41.43970        -2.83283
O         24.94881        37.69450        -3.14644
O         23.76749        20.60159        -2.54343
O         16.49918        47.66660         3.85021
O         25.28844        32.66259         0.71994
O         11.61480        25.65226        -2.44623
O         16.68071        39.30238        -2.39319
O         14.61066        30.20286        -0.22438
O         15.04757        19.04397         2.07577
O         10.55900        36.94187         1.42860
O         18.67390        44.23156         2.50186
O         36.03823        37.96924        -2.00765
O         30.26528        22.76324        -2.15124
O         30.94957        45.73568        -1.77224
O         27.48706        18.42708        -2.37762
O         27.89130        40.05174        -3.05992
O         18.68526        48.97583         3.90989
O         36.83436        34.37344        -2.08984
O         11.15038        27.57180         0.55763
H         10.44238        28.05303         1.03576
O         16.71354        35.54337        -3.57041
H         17.51254        35.15235        -4.00356
O          9.09915        31.04732        -3.17265
H          9.26161        31.98017        -3.45242
O         37.42185        29.32057        -1.59921
H         37.07837        30.02991        -2.18360
O         25.54948        42.45487        -3.07667
H         26.44405        42.59773        -3.45889
O         36.21500        26.93243        -1.55478
H         36.86982        27.64375        -1.79176
O         37.49306        29.18787         2.07409
H         36.84597        28.52143         2.39667
O         29.80085        38.34027         1.66806
H         30.50310        38.07081         2.30225
O         28.50044        42.44444        -2.98541
H         28.41115        41.67244        -3.59485
O         24.90302        26.98525        -2.97326
H         24.43154        26.36226        -3.56406
O         21.39526        31.52397        -3.81764
H         20.90970        30.77671        -4.24591
O         24.49594         9.16675         4.15308
H         25.30607         9.68487         4.34317
O         14.72937        44.24149        -0.39815
H         13.96935        43.94120        -0.93904
O         19.23730        34.26369        -3.88799
H         20.14333        34.39405        -4.25772
O         30.67055        44.42804         1.58294
H         30.48243        43.50573         1.85237
O         27.32964        34.98803        -2.81757
H         27.44812        35.88501        -3.24272
O         24.52968        17.92473        -2.65160
H         23.76979        17.43962        -3.03181
O         27.52789        37.67899        -3.28609
H         26.86529        37.99769        -3.94158
O         10.45041        36.56404        -2.21807
H         10.35004        35.80801        -2.84005
O         20.85887        57.57483         3.95876
H         21.70430        58.08373         4.01594
O         27.94189         9.74599        -0.72851
H         27.06190        10.05743        -1.05157
O         18.68574        39.71857         0.62418
H         18.05603        40.04268         1.30253
O         25.62512        18.69063         0.75317
H         25.03757        19.39486         1.10141
O         15.57409        16.70124         3.20113
H         15.33689        17.65269         3.30692
O         36.70194        34.92027         1.24735
H         37.60821        35.17636         1.51871
O         25.38951        11.17780        -0.92422
H         25.32209        11.96369        -1.50858
O         18.98716        40.10674        -3.01613
H         18.89358        41.08803        -3.04028
O         12.07652        22.92003         2.18222
H         13.00270        23.11258         2.46673
O         23.27127        59.08656         3.27591
H         23.34405        60.06347         3.31492
O         24.32119        22.28540         0.61454
H         24.32734        23.19651         0.97973
O         23.34558         5.54528         1.88365
H         22.83220         6.04341         1.20407
O         11.82615        29.52060        -3.34901
H         11.59630        28.60922        -3.63095
O         20.42970        35.96858         0.24387
H         21.12346        36.52036         0.66571
O         28.30763        48.35034         2.41586
H         28.31383        47.37557         2.52393
O         10.43422        33.51395        -3.07470
H         11.20850        33.16764        -3.57141
O         29.18379        24.96209         1.24470
H         28.36435        25.42617         1.54800
O         27.19155        25.65195        -2.69901
H         27.45052        24.83154        -3.16847
O         36.02896        26.89757         1.90987
H         35.39257        26.17769         2.09707
O         29.44525        26.88136        -1.91706
H         30.20547        26.34754        -2.23287
O         29.69941        33.98253        -1.93706
H         28.89438        34.25990        -2.45315
O         24.66395        41.84037         0.43278
H         23.87433        42.18563         0.96520
O         16.67274        31.02724        -3.85324
H         17.49461        30.64986        -4.25229
O         15.95630        43.35275         2.92538
H         16.82646        43.56874         3.33495
O         26.67161        51.01059        -0.61583
H         27.40057        51.52399        -1.02595
H          4.89626        31.06642        -0.34408
H          4.94542        33.50407         0.13545
H          7.27586        26.88472        -0.78844
H          6.07826        29.00156        -0.74905
H          6.20510        35.57292         0.37664
H          7.43945        37.64409         0.67825
H          9.89548        23.02247         0.72423
H          8.53565        24.77874        -0.42073
H          8.79942        39.78535         1.16322
H         10.06987        41.79868         1.59765
H         12.38367        18.74269         0.06694
H         11.25568        20.77275         0.38869
H         11.30578        43.85570         2.01736
H         12.54572        45.99424         2.32584
H         15.00565        14.41173         1.70547
H         14.18237        16.36831         0.19011
H         13.72867        48.13438         2.19029
H         14.97058        50.31771         2.51071
H         17.44479        10.20861         2.13920
H         16.21546        12.32874         1.90781
H         16.13014        52.46944         2.69100
H         17.28955        54.62860         2.71384
H         20.00439         6.21693         4.10094
H         18.67765         8.11631         3.27777
H         18.45130        56.84689         2.69885
H         19.59559        58.92032         1.53482
H         23.50326         3.49022         5.74667
H         21.30209         4.41856         5.12435
H         22.70240        62.12291        -0.08945
H         20.66209        60.93466         0.63530
H         25.61890         4.59183         5.05323
H         26.83198         6.13748         3.44641
H         26.29480        59.07875         0.43717
H         24.92710        61.03746         0.00136
H         27.94580         7.93655         2.05612
H         29.05774         9.83912         1.01757
H         29.04614        55.02542         0.89819
H         27.71445        57.06038         0.81649
H         30.27855        11.89445         0.57518
H         31.52271        14.00784         0.30497
H         31.65801        50.70042         0.76467
H         30.35158        52.87324         0.70498
H         32.78474        16.02774        -0.03588
H         34.14329        17.95660        -0.69541
H         34.11120        46.42307         0.57766
H         32.90711        48.56421         0.66477
H         35.45591        20.55900        -0.77106
H         36.50790        22.54633        -0.04163
H         36.48450        42.13560         0.10480
H         35.30271        44.27675         0.34618
H         37.69173        24.49949         0.38452
H         38.62599        26.95635        -0.21708
H         38.81059        37.79455        -0.03711
H         37.65189        39.97703         0.05251
H         40.13542        29.02772         0.65627
H         41.40482        31.16455         0.16625
H         41.37537        33.61037        -0.00387
H         40.13656        35.65419        -0.48926
