         234
 CSIRO Nanostructure Databank - Neutral Graphene Oxide Data Set
C          1.23328         1.81570        -0.21254
C          1.17299         3.21204        -0.44573
C          2.40014         1.13738         0.05742
C          2.32761         4.00945        -0.48936
C          1.11783         6.16689        -0.81051
C          1.05638         7.52683        -0.87326
C          2.33253         5.39895        -0.80704
C          2.23148         8.44855        -1.11610
C          0.97296        10.43473        -0.03751
C          0.98304        11.68114         0.62042
C          2.16304         9.72631        -0.28243
C          2.17612        12.11844         1.19919
C          1.34093        15.35106         1.52213
C          1.36207        16.72344         1.30246
C          2.48944        14.56871         1.33015
C          2.57270        17.35904         0.97846
C          2.62662        18.79307         0.90965
C          3.64711         1.85500         0.29056
C          3.59402         3.38705        -0.03028
C          4.95587         1.21715         0.25175
C          4.90146         3.99914        -0.37258
C          3.59506         6.15209        -0.97773
C          3.57136         7.66855        -0.98469
C          4.91844         5.46225        -0.75304
C          4.80517         8.33513        -0.48945
C          3.37212        10.26695         0.19425
C          3.31801        11.30814         1.13324
C          4.68161         9.79200        -0.29883
C          4.87314        13.02036        -0.12666
C          3.70617        15.14094         0.83712
C          3.75065        16.57774         0.74241
C          4.90537        14.42588         0.41762
C          4.96925        17.25977         0.43164
C          3.80036        19.44032         0.66452
C          5.00788        18.69584         0.42577
C          6.15616         1.95861         0.33324
C          6.11186         3.37145         0.16657
C          7.43315         1.28704         0.37004
C          7.31652         4.17872         0.23064
C          6.13894         6.25281        -0.48382
C          6.04503         7.69704        -0.42609
C          7.32820         5.60929        -0.14698
C          7.18709         8.43122         0.09028
C          5.94847        10.65127        -0.06731
C          6.08273        12.15264         0.11083
C          7.00198         9.76021         0.40360
C          7.29239        12.82590         0.09829
C          6.08538        15.09232         0.12139
C          6.16650        16.53621         0.12211
C          7.19479        14.24182        -0.49024
C          7.34528        17.23825        -0.23310
C          6.21467        19.36663         0.22213
C          7.41668        18.66821        -0.08815
C          8.64526         1.96083         0.23052
C          8.64638         3.43892         0.28163
C          9.90573         1.30831         0.15361
C          9.81456         4.19877        -0.23613
C          8.57402         6.32975        -0.01289
C          8.51542         7.78230         0.29258
C          9.80804         5.67194        -0.08461
C          9.83423         8.56593         0.24516
C          8.78562        10.85720         0.57641
C          8.60932        12.19061         0.15170
C          9.87875        10.05838         0.18937
C          9.81689        12.86540        -0.15209
C          8.52837        15.00404        -0.60675
C          8.56400        16.49748        -0.62351
C          9.79051        14.33802        -0.15820
C          9.88713        17.22769        -0.68122
C          8.62696        19.38537        -0.18857
C          9.89209        18.74772        -0.54608
C         11.12125         2.00676         0.01213
C         11.11839         3.45019        -0.32799
C         12.36625         1.37369         0.10916
C         12.36542         4.23472        -0.27556
C         11.06102         6.36594        -0.21608
C         10.98128         7.85869        -0.50438
C         12.27205         5.66908        -0.33991
C         12.30384         8.60881        -0.42746
C         11.06262        10.74787        -0.13849
C         11.05095        12.18255        -0.13678
C         12.28556         9.99961        -0.34433
C         12.28883        12.93837        -0.07729
C         11.08199        15.09132        -0.07515
C         11.14954        16.52373        -0.41914
C         12.33894        14.31747        -0.06589
C         12.35955        17.19653        -0.38763
C         11.20443        19.37527        -0.35002
C         12.36029        18.65175        -0.45958
C         13.58656         2.08907        -0.02859
C         13.58497         3.53252        -0.20233
C         14.80648         1.39302         0.01224
C         14.85397         4.20974        -0.29487
C         13.52676         6.41196        -0.63729
C         13.54843         7.89794        -0.50547
C         14.83188         5.65749        -0.66389
C         14.77285         8.56165        -0.34053
C         13.52506        10.78125        -0.38987
C         13.50629        12.13826         0.27607
C         14.83335        10.02986        -0.30621
C         14.80363        12.89039         0.16296
C         13.59092        15.04685         0.05743
C         13.60893        16.48549        -0.07508
C         14.78535        14.31016         0.22109
C         14.81811        17.19639         0.02727
C         13.65995        19.38825        -0.67558
C         14.90706        18.59037        -0.36268
C         16.04971         2.06314        -0.07284
C         16.04424         3.50396        -0.16944
C         17.26903         1.35462        -0.15725
C         17.37118         4.20665        -0.35561
C         16.14960         6.45074        -0.63863
C         15.99625         7.85736        -0.07805
C         17.23761         5.66215         0.04644
C         17.07982         8.54641         0.45992
C         16.01403        10.73218         0.22635
C         16.00322        12.17180         0.30812
C         17.14838         9.98074         0.53852
C         17.23969        12.86328         0.57474
C         16.03319        15.00523         0.56981
C         16.03679        16.52489         0.52968
C         17.30428        14.25240         0.57858
C         17.38301        17.19363         0.43431
C         16.10309        19.23352        -0.49372
C         17.39879        18.62197        -0.13951
C         18.53670         2.00698        -0.13806
C         18.58878         3.39882         0.10417
C         19.76552         1.28844        -0.34728
C         19.88066         3.98899         0.25289
C         18.08892         6.32808         0.84815
C         18.23625         7.78336         0.94764
C         20.02061         5.29160         0.79463
C         19.61755         8.41156         0.98770
C         18.42766        10.60963         0.79142
C         18.42518        12.07312         0.93929
C         19.63127         9.90633         0.84687
C         19.77070        12.80649         0.96320
C         18.57777        14.95143         0.57006
C         18.60906        16.39151         0.32488
C         19.76948        14.24383         0.64576
C         19.80962        17.00831        -0.06795
C         18.61686        19.05458        -0.79650
C         19.79516        18.33497        -0.66648
C         20.97339         1.93873        -0.47111
C         21.06677         3.33806        -0.18772
C         22.22509         4.15385        -0.33472
C         21.05818         6.16354         0.49030
C         20.89534         7.69803         0.46561
C         22.18086         5.53057        -0.12357
C         22.11363         8.44149         0.96010
C         20.90352        10.59391         0.86588
C         20.97759        11.98903         0.76529
C         22.11128         9.78915         1.03281
C         22.19262        12.69903         0.43523
C         21.09815        14.96202         0.70237
C         21.05989        16.28332        -0.04148
C         22.24738        14.04923         0.33481
C         22.19730        16.85130        -0.57091
C         21.01046        18.85715        -1.23297
C         22.17220        18.13965        -1.18024
O         19.04137        12.50246         2.20196
O          5.40331        10.43846        -1.40390
O          8.09150         3.98245         1.49632
O          8.54533        15.68993        -1.89204
O         10.29715         3.73769        -1.53088
O         14.34189        10.66151        -1.57031
O          3.75499         6.91728        -2.23482
O          9.33719         8.04337         1.49910
O          3.91363        12.67538        -0.80256
O          3.55217         2.92240         1.32122
O         10.24853        14.86734         1.14951
O          7.81309        10.30188         1.40739
O         17.52277        18.35654         1.30523
O          2.39239        13.29695         1.95321
O         14.11186         5.92420        -1.91938
O         15.85364        15.82523         1.79718
O          5.08524         4.41303        -1.77198
O          9.88881        18.06555        -1.87550
O         18.91204         8.11476         2.21946
O         18.99265         5.65192         1.66408
O          4.39135        11.66695         1.89653
H          4.10422        12.45513         2.41617
O         13.36349        11.82045         1.70506
H         13.27881        12.66551         2.19674
O         17.61323         4.21141        -1.80794
H         17.27641         5.07208        -2.17163
O         20.78464         7.99067        -0.96788
H         21.58025         7.63284        -1.41564
O          6.74963        13.96908        -1.84721
H          7.06517        14.71747        -2.40926
O          2.11406         8.87122        -2.49707
H          2.52787         8.16457        -3.04502
O         13.68438        20.62545         0.04722
H         13.80964        20.42318         0.99707
O         16.54215         6.67199        -2.02931
H         15.69750         6.71990        -2.54302
O         10.55430         7.95845        -1.90268
H         11.21552         7.49279        -2.45820
O         21.30546        15.30877         2.11454
H         21.03970        14.53398         2.65486
H          0.30547         1.23845        -0.33588
H          0.20385         3.64159        -0.73114
H          2.41927         0.03848         0.03988
H          0.17080         5.61910        -0.69627
H          0.06130         7.99618        -0.87670
H          0.02227        10.06031        -0.44014
H          0.06841        12.28514         0.67861
H          0.42846        14.86303         1.88945
H          0.45539        17.32471         1.45822
H          1.70014        19.35882         1.08506
H          5.00413         0.12396         0.14269
H          3.84301        20.53847         0.63604
H          7.43400         0.18737         0.39797
H          6.23974        20.46433         0.28820
H          9.93797         0.21401         0.26366
H          8.62528        20.46017         0.04483
H         12.40821         0.29208         0.30521
H         11.26688        20.47016        -0.25319
H         14.79259         0.29641         0.09839
H         13.69234        19.66617        -1.76696
H         17.23758         0.25647        -0.22629
H         16.10718        20.27895        -0.83849
H         19.70963         0.20426        -0.52646
H         18.58892        19.95008        -1.43487
H         21.87531         1.38245        -0.76464
H         23.15517         3.69843        -0.70411
H         23.06804         6.13369        -0.37231
H         23.03734         7.87954         1.16359
H         23.03671        10.31149         1.31724
H         23.09750        12.11149         0.21887
H         23.21814        14.50857         0.09985
H         23.15984        16.32442        -0.52858
H         20.98825        19.85764        -1.68821
H         23.10174        18.55109        -1.59724
