         349
 CSIRO Nanostructure Databank - Neutral Graphene Oxide Data Set
C          2.89416         2.46154        -4.51534
C          2.79835         3.86771        -4.21411
C          3.79091         1.54878        -4.01784
C          3.65323         4.61981        -3.43252
C          2.25156         6.77926        -3.37380
C          2.11877         8.08039        -3.01584
C          3.15530         5.82699        -2.63996
C          3.05438         8.75287        -2.14379
C          1.66527        10.81612        -1.90720
C          1.56377        12.14432        -1.58299
C          2.88850        10.07743        -1.74514
C          2.64629        12.89276        -0.99576
C          1.43144        15.07484        -1.15128
C          1.43601        16.44727        -1.11645
C          2.57728        14.31145        -0.75600
C          2.58869        17.16316        -0.68038
C          2.63939        18.58383        -0.72908
C          4.99315         1.96013        -3.33140
C          4.93528         4.13284        -3.03161
C          5.61629         1.43807        -2.23005
C          5.57760         4.47917        -1.85744
C          4.24792         6.51282        -1.85158
C          4.36420         8.01690        -1.90464
C          5.25284         5.76148        -1.27745
C          5.13124         8.57074        -0.74440
C          4.02887        10.82715        -1.17442
C          3.84183        12.20858        -0.68861
C          5.20794        10.00536        -0.63594
C          4.89271        12.85607         0.00329
C          3.70186        14.99232        -0.21657
C          3.71172        16.43410        -0.18802
C          4.85856        14.25691         0.22378
C          4.85228        17.14226         0.25209
C          3.78075        19.25941        -0.35959
C          4.91883        18.54980         0.12895
C          6.67054         2.15094        -1.52329
C          6.82517         3.69560        -1.49356
C          7.63460         1.42469        -0.88104
C          7.35376         4.08694        -0.08305
C          5.98771         6.23722        -0.03127
C          5.97884         7.75595         0.11573
C          7.35283         5.58441         0.16621
C          7.14551         8.45289         0.79949
C          6.16542        10.64212         0.27729
C          5.99190        12.06754         0.58285
C          7.25011         9.93212         0.75595
C          7.21511        12.80652         1.12081
C          6.02235        14.94451         0.71343
C          5.95207        16.42650         0.98234
C          7.21984        14.27147         0.99572
C          7.28975        17.11675         0.88064
C          6.13568        19.23968         0.41845
C          7.32261        18.55431         0.72307
C          8.77415         2.05587        -0.23973
C          8.69228         3.43287         0.11376
C          9.94216         1.33286        -0.00865
C          9.78319         4.11859         0.69013
C          8.43126         6.20998         0.76657
C          8.33693         7.64011         1.21909
C          9.66893         5.49462         1.02272
C          9.55982         8.40586         1.65786
C          8.46452        10.60857         1.17304
C          8.48861        12.06629         1.16152
C          9.62774         9.88210         1.44562
C          9.67014        12.77329         1.21159
C          8.45954        14.96371         1.18678
C          8.45498        16.40047         1.12049
C          9.68961        14.22507         1.26187
C          9.70667        17.13881         1.37321
C          8.56714        19.24837         0.78647
C          9.76743        18.58314         1.05949
C         11.10949         1.97203         0.50528
C         11.05211         3.41337         0.80116
C         12.24937         1.24694         0.79246
C         12.21862         4.08203         1.10101
C         10.81347         6.15029         1.68782
C         10.84234         7.64885         1.88081
C         12.17008         5.42277         1.70132
C         12.15100         8.40586         1.82160
C         10.91227        10.55447         1.45906
C         10.95694        12.01082         1.01878
C         12.09874         9.86830         1.57066
C         12.17687        12.79799         1.42267
C         10.93752        14.89246         1.25851
C         10.99531        16.35320         1.43847
C         12.17407        14.16817         1.27911
C         12.26746        17.07489         1.23507
C         11.02164        19.22442         1.05986
C         12.24910        18.51654         1.15042
C         13.43383         1.94679         1.40553
C         13.51825         3.35078         0.80696
C         14.75466         1.23455         1.29421
C         14.74826         4.09224         1.26739
C         13.48396         6.19552         1.93564
C         13.39635         7.67500         1.60614
C         14.64715         5.59345         1.12135
C         14.63038         8.39258         1.30703
C         13.39474        10.59489         1.72302
C         13.43141        12.08995         1.70600
C         14.66624         9.91193         1.36128
C         14.73603        12.78676         1.61030
C         13.46803        14.88100         0.94951
C         13.46114        16.37105         1.18015
C         14.72888        14.20080         1.43842
C         14.71047        17.06175         1.11766
C         13.48144        19.19430         1.02388
C         14.70613        18.50015         1.00996
C         15.92282         1.93976         1.44296
C         15.89208         3.40906         1.53358
C         17.20315         1.27980         1.42560
C         17.09339         4.16157         2.07448
C         15.92469         6.32902         1.44736
C         15.92500         7.69190         1.46399
C         17.19458         5.52700         1.34672
C         17.16342         8.47736         1.49167
C         15.94364        10.63380         1.60526
C         15.92703        12.05040         1.75635
C         17.16000         9.92058         1.53447
C         17.19746        12.75325         2.20546
C         15.91966        14.93409         1.46681
C         15.93273        16.34808         1.21548
C         17.17471        14.27313         1.90699
C         17.18128        17.05852         1.03814
C         15.93746        19.18564         0.84876
C         17.16052        18.50276         0.81066
C         18.40364         1.94979         1.56012
C         18.46969         3.40412         2.01460
C         19.64474         1.25948         1.40361
C         19.52660         4.14352         1.18597
C         18.42044         6.31823         1.81443
C         18.36680         7.78080         1.44798
C         19.64089         5.59906         1.30655
C         19.60586         8.47357         1.26296
C         18.43531        10.63826         1.55684
C         18.46821        12.03174         1.76780
C         19.63536         9.88648         1.34300
C         19.76068        12.75737         1.86462
C         18.46221        15.03234         1.65325
C         18.38971        16.37864         1.04785
C         19.77051        14.27539         1.69350
C         19.62283        17.08198         0.64306
C         18.37391        19.21633         0.64479
C         19.61875        18.56552         0.58062
C         20.85975         1.93131         1.19180
C         20.80041         3.37814         0.87734
C         22.10810         1.28621         1.10238
C         22.05208         4.13819         0.74698
C         20.78389         6.28469         0.90625
C         20.77425         7.71903         0.94051
C         22.01817         5.54735         0.63093
C         21.91448         8.45129         0.39820
C         21.00329        10.49110         1.54581
C         21.03720        12.01325         1.55337
C         22.05107         9.86992         0.64438
C         22.17501        12.74482         0.91218
C         20.96946        14.92835         1.09962
C         20.93059        16.37573         0.70903
C         22.06279        14.21489         0.72420
C         22.20287        17.20891         0.91027
C         20.81902        19.24155         0.32831
C         22.09572        18.59430         0.28534
C         23.30645         1.99585         0.82979
C         23.28175         3.43773         0.70947
C         24.54107         1.32340         0.65844
C         24.50444         4.15301         0.54710
C         23.23758         6.23929         0.40564
C         23.21779         7.66326         0.08804
C         24.48096         5.57315         0.40582
C         24.46390         8.42768         0.06173
C         23.19363        10.52899         0.19247
C         23.07842        12.01252        -0.09069
C         24.38813         9.82714        -0.12379
C         24.41721        12.69800        -0.24555
C         23.31262        14.91949         0.31526
C         23.41575        16.40303         0.41652
C         24.31173        14.16010        -0.50013
C         24.56761        17.13523        -0.22853
C         23.20732        19.26535        -0.18268
C         24.52436        18.63471        -0.37935
C         25.73742         2.01919         0.41392
C         25.73778         3.45197         0.42425
C         26.96635         1.33143         0.11906
C         26.95596         4.18382         0.27758
C         25.71242         6.31712         0.26497
C         25.69183         7.73188         0.15842
C         26.94554         5.59707         0.26796
C         26.94427         8.52654         0.15584
C         25.58632        10.53645        -0.71495
C         25.56391        12.02945        -0.49359
C         26.92557         9.90416        -0.37140
C         26.81923        12.77390        -0.78800
C         25.44044        14.87934        -1.15109
C         25.49616        16.38398        -1.14016
C         26.70274        14.11569        -1.45554
C         26.70338        17.10648        -1.65719
C         25.62703        19.28873        -1.11789
C         26.77647        18.58830        -1.47110
C         28.12008         2.02095        -0.18606
C         28.16441         3.46947        -0.07101
C         29.36237         1.33675        -0.53264
C         29.33599         4.14900        -0.38572
C         28.23212         6.30703         0.34856
C         28.27226         7.80326         0.23460
C         29.51747         5.52906         0.06604
C         29.45706         8.46098        -0.36693
C         28.11024        10.56382        -0.58525
C         28.10814        12.03823        -0.85438
C         29.39077         9.85849        -0.63039
C         29.26382        12.62243        -1.66234
C         27.95827        14.84898        -1.81607
C         27.96013        16.33816        -1.86926
C         29.26605        14.15087        -1.70406
C         29.13340        17.01376        -2.01580
C         27.97603        19.22132        -1.88412
C         29.13141        18.47092        -2.19502
C         30.42818         2.01233        -1.01140
C         30.32063         3.48895        -1.31522
C         31.63362         4.21650        -1.39287
C         30.83475         6.28365        -0.16063
C         30.63387         7.72641        -0.65281
C         31.81697         5.47411        -0.97885
C         31.73064         8.41642        -1.18353
C         30.55628        10.54577        -1.07599
C         30.55973        12.06920        -1.05005
C         31.69951         9.80215        -1.36924
C         31.76931        12.77135        -1.62201
C         30.43614        14.82437        -1.88400
C         30.49012        16.34001        -1.92870
C         31.69647        14.08336        -1.92590
C         31.42945        16.92798        -2.95572
C         30.26813        19.06454        -2.76819
C         31.34449        18.25994        -3.24691
O         27.76172        12.81244         0.34537
O         23.94847        15.55064         1.49470
O         11.29660         5.44191         2.87413
O         25.54257        16.83781        -2.53039
O         22.27428         8.02382        -0.95737
O         14.58566         9.24319         0.06660
O         22.21655        12.41844         2.33848
O         25.17751        17.95848         0.80077
O         20.28027        16.51941        -0.59037
O         19.93956        13.65565         3.00805
O         29.04743         5.75405         1.43786
O         27.71315         8.44397         1.42086
O         22.45330        12.09867        -1.35100
O          5.25653        10.70645        -1.99131
O          5.92545         8.09921         1.55654
O         13.40877        11.30904         2.99302
O          8.58199         7.90550         2.63792
O         27.10934        14.17902        -2.85372
O         24.27910        14.43995        -1.93530
O         11.48257         8.02809         3.12682
O          5.54709         3.16194        -3.84432
O          6.18054        12.31757         2.02426
O         10.30406        16.79575         2.67170
O         19.79017         3.66156        -0.16425
O         17.81205        15.03450         2.97922
O         29.74636         3.58555        -2.66798
H         28.93339         3.03676        -2.68193
O         21.37182        10.05517         2.89935
H         21.99626        10.73493         3.24802
O         13.15295         2.10578         2.83008
H         13.09496         1.21454         3.23261
O         31.04643        16.73262        -0.62661
H         31.10037        17.71206        -0.61529
O         11.10353        11.89280        -0.45584
H         11.30095        12.78852        -0.80788
O          5.13062         5.74527         1.05680
H          5.31235         6.33469         1.83040
O         17.32928         5.22014        -0.06761
H         17.77446         5.97106        -0.51405
O          5.58170        16.54144         2.41492
H          6.26181        16.05720         2.93141
O         29.14912        12.15130        -3.01948
H         28.38383        12.62132        -3.42649
O         13.52084        14.74522        -0.52977
H         14.29779        15.25723        -0.84299
O          6.47054         3.46538         0.89272
H          5.75271         4.11442         1.11150
O         25.43939        10.37803        -2.16657
H         24.57376        10.77611        -2.41420
O         13.84101         6.03591         3.32905
H         13.01411         6.18373         3.84642
O         18.44113         6.30041         3.27187
H         19.17301         6.88221         3.56785
O          2.27807         5.20217        -1.62567
H          2.07772         5.88183        -0.94732
O         17.19042        12.62241         3.65614
H         17.83455        13.29058         3.99336
O         19.03394         3.35927         3.34395
H         18.38379         3.78973         3.95075
O         16.77579         4.38559         3.46402
H         15.98024         4.96137         3.52025
O         13.61267         3.19835        -0.63209
H         13.74497         4.10367        -0.99942
O          7.84933         4.03807        -2.45536
H          7.50035         3.78642        -3.34060
O         31.48239         6.42968         1.13060
H         30.76235         6.47955         1.80355
O         22.34849        17.42341         2.32652
H         22.99000        16.75302         2.66061
O          5.17656         8.24900        -3.12289
H          5.33659         9.22603        -3.15164
O         30.52042        12.43277         0.35583
H         31.33491        12.09939         0.78506
O         14.35058         5.84154        -0.28914
H         15.20243         5.74420        -0.77221
H          2.02731         2.05297        -5.05871
H          1.83717         4.32615        -4.49691
H          3.57165         0.47495        -4.12075
H          1.53679         6.34758        -4.09011
H          1.32344         8.68040        -3.48429
H          0.78863        10.30344        -2.32729
H          0.60506        12.64826        -1.76470
H          0.53694        14.55733        -1.52259
H          0.55452        17.01084        -1.45491
H          1.76100        19.13571        -1.09381
H          5.30860         0.45703        -1.83807
H          3.82685        20.35554        -0.43270
H          7.63264         0.32627        -0.95774
H          6.16465        20.33301         0.29730
H          9.98174         0.26097        -0.25299
H          8.58059        20.33152         0.59287
H         12.25302         0.15307         0.66326
H         11.05826        20.31316         0.90340
H         14.77824         0.13501         1.22941
H         13.48453        20.28948         0.92095
H         17.21724         0.19974         1.20744
H         15.92837        20.28000         0.73685
H         19.63502         0.15768         1.38887
H         18.33479        20.31269         0.56034
H         22.16110         0.19764         1.25709
H         20.77743        20.31871         0.10305
H         24.55728         0.22356         0.69040
H         23.07816        20.28648        -0.57499
H         26.96302         0.23127         0.09423
H         25.62830        20.38856        -1.17199
H         29.40702         0.24582        -0.39306
H         28.01399        20.31916        -1.95003
H         31.35036         1.48054        -1.28965
H         32.45123         3.69634        -1.91652
H         32.81469         5.92161        -1.10334
H         32.66269         7.88059        -1.40571
H         32.60617        10.29920        -1.74040
H         32.74864        12.26980        -1.62710
H         32.60808        14.62676        -2.21478
H         32.26625        16.33143        -3.34576
H         30.26940        20.14491        -2.97096
H         32.10584        18.73210        -3.88539
