         276
 CSIRO Nanostructure Databank - Neutral Graphene Oxide Data Set
C        -10.88245         0.52401        -1.31984
C         -9.52440         1.18905        -1.31596
C         -8.73667         0.70857        -0.07240
C         -7.35043         1.30734        -0.02355
C         -6.31687         0.71826         0.80369
C         -4.95198         1.40647         0.94421
C         -3.73526         0.63796         1.36064
C         -2.34171         1.24224         1.25691
C         -1.17632         0.53402         1.95309
C          0.12702         1.31738         2.06684
C          1.51670         0.69437         1.87525
C          2.69373         1.51915         1.50429
C          3.79224         0.92131         0.66776
C          5.17728         1.42550         1.07406
C          6.32426         0.78905         0.30010
C          7.67666         1.47245         0.47513
C          8.76627         0.83351        -0.36791
C         10.02775         1.56642        -0.46853
C         11.21673         0.79541        -0.83116
C         -9.52250         2.69931        -1.31116
C         -8.34706         3.34817        -1.11540
C         -7.07894         2.53705        -0.85735
C         -5.94990         3.41478        -0.33478
C         -4.79727         2.79698         0.37748
C         -3.41227         3.34810         0.12369
C         -2.20351         2.62522         0.69833
C         -0.91007         3.43973         0.81072
C          0.07503         2.92468         1.93877
C          1.40138         3.61302         1.57297
C          2.57418         2.98323         1.34969
C          3.83907         3.69101         1.03066
C          5.13060         2.95364         0.89867
C          6.45727         3.62240         1.23973
C          7.55216         3.01443         0.21934
C          8.94751         3.73934         0.31478
C         10.08483         2.90468        -0.23457
C         -8.25094         4.80335        -1.19139
C         -7.07055         5.47434        -1.19601
C         -5.79602         4.71149        -1.08078
C         -4.48065         5.43074        -1.06056
C         -3.26211         4.71983        -0.48387
C         -2.02066         5.56859        -0.13219
C         -1.26918         4.94659         1.08572
C         -0.01854         5.79845         1.48739
C          1.31058         5.10444         1.64742
C          2.60953         5.88583         1.57128
C          3.88195         5.15053         1.32176
C          5.15883         5.82763         0.95419
C          6.29781         5.12655         1.16095
C          7.99435         6.03968         0.01704
C          8.81362         5.06496        -0.44755
C         -6.99124         6.98575        -1.22032
C         -5.69667         7.50069        -1.91489
C         -4.48445         6.90235        -1.21581
C         -3.46602         7.65678        -0.70816
C         -2.38884         7.02993         0.12077
C         -1.30282         7.91205         0.68512
C         -0.07487         7.37778         1.44527
C          1.27351         8.04744         1.05555
C          2.59828         7.34999         1.20835
C          3.77528         7.83540         0.34129
C          5.19989         7.34525         0.77095
C          6.22487         7.79537        -0.30943
C          7.42370         7.20676        -0.63500
C         -5.69248         9.00399        -1.90071
C         -4.68820         9.73069        -1.37824
C         -3.51615         9.11246        -0.77944
C         -2.45467         9.87970        -0.36712
C         -1.24000         9.28933         0.13939
C         -0.03582         9.90753        -0.07083
C          1.23675         9.29460         0.23071
C          2.38875         9.87289        -0.20776
C          3.75842         9.38041         0.18867
C          4.80466         9.77117        -0.82474
C          5.90093         9.01758        -1.04353
C        -10.96612        -0.80169        -1.13049
C         -9.70449        -1.60528        -0.87606
C         -8.82399        -0.82550         0.12077
C         -7.75203        -1.56102         0.87572
C         -6.46839        -0.78698         1.16985
C         -5.15929        -1.55172         1.12329
C         -3.83988        -0.86246         1.24312
C         -2.67065        -1.63793         1.82795
C         -1.32122        -0.94380         1.65472
C         -0.26501        -1.77744         1.46301
C          1.69084        -0.71130         1.41518
C          2.46501        -1.19569         0.41146
C          3.61687        -0.36572        -0.05150
C          4.85112        -1.07453        -0.52763
C          6.17936        -0.41338        -0.31697
C          7.36320        -1.13978        -0.85547
C          8.66791        -0.44436        -0.82385
C          9.84589        -1.22165        -1.37747
C         11.15327        -0.50566        -1.16817
C         -9.94132        -3.03243        -0.43077
C         -8.90502        -3.71397         0.09037
C         -7.75169        -3.08246         0.82791
C         -6.37743        -3.66941         0.55350
C         -5.27699        -3.04651         1.45735
C         -3.97083        -3.84251         1.22676
C         -2.66957        -3.13261         1.41940
C         -1.53439        -3.69782         0.59550
C         -0.27860        -2.91037         0.53862
C          0.99371        -3.39607        -0.11393
C          2.27884        -2.56800        -0.17436
C          3.48707        -3.29267        -0.61551
C          4.79288        -2.56855        -0.67791
C          6.07432        -3.31258        -0.37177
C          7.33975        -2.65439        -0.88703
C          8.64442        -3.37308        -0.71615
C          9.83291        -2.64243        -0.84588
C         -8.83476        -4.89491         1.02937
C         -7.72748        -5.85403         0.63679
C         -6.38563        -5.20075         0.83507
C         -5.25273        -5.79143         0.05500
C         -3.95777        -5.05361         0.28885
C         -2.69378        -5.75890        -0.10365
C         -1.38787        -5.20773         0.49950
C         -0.20639        -5.63453        -0.37340
C          1.06742        -4.84475        -0.43173
C          2.18415        -5.35138        -1.06420
C          3.31434        -4.46987        -1.33902
C          4.92455        -5.59768         0.30978
C          6.13605        -4.77166         0.04028
C          7.30855        -5.46589        -0.67767
C          8.60886        -4.75046        -0.45350
C         -7.79328        -7.15987         0.30650
C         -6.61941        -7.99018        -0.23835
C         -5.29374        -7.22856        -0.32864
C         -3.99587        -7.95575        -0.33749
C         -2.74595        -7.18494        -0.73650
C         -1.42657        -7.92914        -0.34489
C         -0.25761        -7.04492        -0.88142
C          0.99025        -7.52997        -1.60356
C          2.31486        -6.83672        -1.27415
C          3.51970        -7.56524        -0.68208
C          4.78533        -6.85160        -0.25063
C          6.02842        -7.57242        -0.53667
C          7.25480        -6.95568        -0.53109
C         -6.40241        -9.32961         0.43009
C         -5.19864        -9.94123         0.39306
C         -3.97046        -9.28848        -0.07385
C         -2.69715       -10.11168        -0.12401
C         -1.45130        -9.42679        -0.76245
C         -0.19842       -10.17171        -0.24555
C          1.06505        -9.89595        -0.50115
C          2.33688        -9.83188        -0.86086
C          3.42520        -9.01387        -0.17959
C          4.76842        -9.69667        -0.39404
C          5.92638        -9.03257        -0.57176
O         -0.65914         0.92352         3.23882
O          0.47535         5.44048         2.80487
O         -1.96099         1.43277        -0.14295
O         -4.97069         4.72248        -2.27596
O          1.28466        -2.53107        -1.26712
O         -0.33970         3.39768         3.17407
O          5.35864         1.16786         2.43461
O          3.40740         0.92059        -0.73484
O          0.87181        -8.22237        -2.60108
O         -4.52898         1.31180         2.35584
O         -6.70852         0.21200         2.15639
O         -1.31325        -2.81991        -0.51967
O          7.48577         5.85827         1.33224
O         -4.33750        -1.29676        -0.05896
O          0.93127        -1.61972         2.13886
O         -8.25176        -3.90450         2.01384
O         -8.97251        -1.10829         1.53497
O         -5.44560        -6.14978        -1.33513
O         -0.68584        -5.92203        -1.72497
O          2.14036         8.23614         2.25313
O          7.18437        -1.90575        -2.11644
O          3.48530         5.52606         2.68731
O          3.37250        -7.36373        -2.11773
O         -3.29376        -4.75720        -0.98154
O          6.31570        -3.71744         1.03224
O         -5.76993         3.66188         1.08212
O          4.78942        -1.68997        -1.85436
O         -2.48979         7.55165         1.46420
O          4.45113         3.40081        -0.29666
O          2.53270         1.04233         2.87308
O         -3.19127        -4.02777         2.44897
O         -3.03482         3.53839        -1.28966
O         -5.73932         7.08458        -3.29587
H         -5.46177         6.13506        -3.32694
O          8.12619         1.26533         1.83284
H          8.68727         2.03707         2.08936
O         -5.64695        -3.09673         2.83691
H         -4.81421        -3.17319         3.35975
O         -6.10165        -3.37558        -0.81679
H         -5.21290        -3.68965        -1.09157
O         -8.82181         0.76655        -2.51685
H         -9.41115         0.91103        -3.28529
O         -0.33585         7.80637         2.78722
H          0.46841         7.62573         3.32299
O          9.70890        -1.39933        -2.82341
H          8.76026        -1.63685        -2.98713
O         -9.42519         1.32289         1.04908
H         -9.16810         0.81139         1.85413
O          9.28885         3.92666         1.69957
H          8.65698         4.57994         2.08575
O         -2.81177        -7.06962        -2.15944
H         -3.27007        -6.22332        -2.36689
O          3.48802         7.23324        -0.94219
H          4.14603         7.55462        -1.59590
O          3.15774        -8.91959         1.23341
H          3.10994        -9.82585         1.60087
O          6.78425         3.31588         2.59121
H          6.41294         2.39927         2.80410
O         -2.89230        -1.63598         3.26369
H         -2.55298        -0.79791         3.64659
O          6.97604        -5.18658        -2.10031
H          7.45650        -5.83738        -2.65583
O         -1.15029         5.63568        -1.27021
H         -0.89814         4.71065        -1.51066
O          5.54895         7.95125         2.01776
H          6.38954         7.54432         2.31911
O         -0.21141         3.31854        -0.44422
H         -0.53590         2.49898        -0.88831
O         -7.01002        -8.30548        -1.60323
H         -6.74749        -7.53534        -2.15597
O         -1.12683        -5.62919         1.84269
H         -1.88179        -5.35376         2.41543
O          4.03832        -5.07873         1.19655
H          4.46215        -4.28093         1.59359
O         -6.03621        -5.47527         2.21123
H         -6.67740        -4.97882         2.77475
O         -6.53983         2.06065        -2.12292
H         -7.23419         1.49246        -2.54915
O         -1.31645        -7.93949         1.08544
H         -1.54939        -8.83458         1.43059
O         -2.36261       -10.47730         1.23447
H         -3.17749       -10.78717         1.68199
O         -2.18337         4.93912         2.17312
H         -1.67725         4.56565         2.94912
O         -8.92178        -1.69289        -2.09442
H         -9.34657        -2.34465        -2.68880
O         -6.96266         7.45855         0.12942
H         -7.70482         7.05829         0.62632
O          4.09054        10.02169         1.43657
H          3.50763         9.62743         2.12781
O          4.23437        -4.90897        -2.21608
H          4.90509        -4.22134        -2.40980
O         -1.55887        -9.57416        -2.16959
H         -0.80316        -9.09677        -2.59607
O          7.10503         3.22285        -1.12227
H          6.19607         2.86928        -1.23856
H         12.07208        -1.05943        -1.41374
H         12.19102         1.30423        -0.77006
H         11.05407         3.41974        -0.32880
H          9.21677         5.12587        -1.46825
H          7.99194         7.64018        -1.47536
H          6.64109         9.35060        -1.78959
H          4.66485        10.70775        -1.38613
H          2.32598        10.82070        -0.76559
H         -0.01695        10.88745        -0.57098
H         -2.47624        10.96776        -0.53119
H         -4.72608        10.83042        -1.40370
H         -6.55567         9.50396        -2.36507
H         -7.89391         7.40121        -1.75425
H         -9.19606         5.36225        -1.28800
H        -10.44840         3.25831        -1.51885
H        -11.78351         1.13088        -1.49966
H        -11.93990        -1.31563        -1.14647
H        -10.90108        -3.52302        -0.65690
H         -9.77950        -5.36213         1.38626
H         -8.77532        -7.65806         0.24603
H         -7.28270        -9.87320         0.80398
H         -5.10717       -10.97153         0.77426
H         -2.90800       -11.05284        -0.70450
H         -0.40007       -11.04442         0.40399
H          2.62887       -10.34800        -1.79408
H          4.77536       -10.79843        -0.39203
H          6.86152        -9.59736        -0.71175
H          8.17880        -7.54487        -0.62144
H          9.54159        -5.30839        -0.27920
H         10.79042        -3.18331        -0.76986
