         621
 CSIRO Nanostructure Databank - Neutral Graphene Oxide Data Set
C          5.87106        31.89104        -0.10301
C          5.90306        33.25735        -0.07952
C          8.31788        27.54500         0.41378
C          8.25717        28.91430         0.31510
C          7.04217        29.69799         0.13872
C          8.20942        31.81592         0.71465
C          7.02284        31.07439         0.22379
C          8.24132        33.27797         0.60694
C          7.10770        34.00824         0.24828
C          8.30584        36.18221         0.56722
C          7.16934        35.43919         0.17565
C          8.37346        37.57915         0.50606
C         11.10567        23.37496         0.03220
C         10.93579        24.78448        -0.12324
C          9.78822        25.38177         0.35418
C         10.62270        27.61999        -0.39653
C          9.68886        26.86943         0.55842
C         10.70641        29.03578         0.14413
C          9.52789        29.65565         0.41730
C         10.80665        31.77976         0.91022
C          9.51182        31.06030         0.86466
C         10.80728        33.26084         0.93634
C          9.52344        33.99743         0.75121
C         10.79597        36.11711         1.12604
C          9.44552        35.43193         1.23029
C         10.83265        37.60254         1.07194
C          9.54325        38.33597         0.87214
C         10.73838        40.52055         1.38878
C          9.54397        39.70614         0.92900
C         10.79067        41.87715         0.75480
C         13.68426        19.27094         0.15186
C         13.59594        20.60342        -0.23848
C         12.42590        21.33862         0.02080
C         13.47060        23.47393        -0.73047
C         12.30349        22.71546        -0.26815
C         13.34312        24.82457        -0.96303
C         11.95185        25.49769        -1.02888
C         13.27957        27.77839        -0.60455
C         11.98930        27.02602        -0.73867
C         13.29743        29.01395         0.24427
C         11.97937        29.64107         0.58921
C         13.25797        31.74257         1.25818
C         11.97443        31.08596         0.90151
C         13.25825        33.20932         1.59719
C         11.99990        33.98533         1.44585
C         13.25323        36.07087         1.82804
C         11.98436        35.34027         1.58870
C         13.28728        37.58131         1.80413
C         11.95639        38.34744         1.81294
C         13.19352        40.27822         0.74876
C         12.04642        39.75501         1.27087
C         13.13840        41.55360        -0.06669
C         11.94718        42.42480         0.26435
C         13.21558        44.44100        -0.39382
C         12.01319        43.81396        -0.02583
C         13.23723        45.85513        -0.52173
C         16.00311        14.90882         0.07177
C         16.00916        16.31037        -0.11739
C         14.86902        17.11008         0.17076
C         16.05109        19.14705        -0.54579
C         14.86016        18.48998        -0.07336
C         16.04703        20.55574        -0.87175
C         14.69919        21.23787        -1.05954
C         15.90364        23.40292        -1.24591
C         14.74520        22.75326        -0.92932
C         15.89533        24.88617        -1.36228
C         14.56483        25.60691        -1.26965
C         15.87712        27.81834        -0.67529
C         14.58341        27.08841        -0.97434
C         15.80125        29.18990        -0.06634
C         14.52444        29.84029         0.29257
C         15.76214        31.84579         1.01818
C         14.52699        31.10963         0.82697
C         15.77314        33.20927         1.37504
C         14.53371        33.96359         1.50277
C         15.75042        36.12285         1.76826
C         14.51259        35.33025         1.59373
C         15.75140        37.54905         1.36107
C         14.52484        38.25427         1.31095
C         15.69104        40.22476         0.40778
C         14.47377        39.56923         0.80622
C         15.66079        41.56196        -0.10429
C         14.45306        42.30786        -0.16783
C         15.58075        44.30295        -1.27362
C         14.43793        43.67148        -0.49826
C         15.62248        45.83542        -1.22028
C         14.41013        46.57966        -0.79709
C         15.68235        48.71533        -0.75033
C         14.46319        47.97041        -0.65451
C         15.67778        50.13665        -0.53967
C         18.30108        10.54774         0.21503
C         18.25844        11.91045        -0.17468
C         17.12931        12.70518         0.01423
C         18.27628        14.74793        -0.81167
C         17.11965        14.11272        -0.25764
C         18.32341        16.14249        -0.95423
C         17.19202        16.94990        -0.61623
C         18.37229        19.00959        -1.33548
C         17.20952        18.37387        -0.77043
C         18.46990        20.47431        -1.36178
C         17.21452        21.21259        -1.21752
C         18.46636        23.41637        -1.44112
C         17.14745        22.65422        -1.73034
C         18.44694        24.85829        -0.96393
C         17.17177        25.64489        -1.07055
C         18.16903        27.50857         0.26831
C         17.13125        27.01138        -0.46589
C         18.12158        28.85735         0.98278
C         16.98406        29.75464         0.58808
C         18.24903        31.77326         1.22055
C         16.99848        31.09902         0.94302
C         18.22122        33.17897         1.46241
C         17.02229        33.88939         1.55420
C         18.26989        36.12390         1.47839
C         17.04809        35.35880         1.79794
C         18.23261        37.46726         1.11749
C         16.96819        38.19239         1.01761
C         18.20377        40.23698         0.33838
C         16.95012        39.54620         0.57635
C         18.20257        41.58408        -0.06662
C         16.93465        42.20304        -0.49999
C         18.18985        44.42885        -0.83360
C         16.94616        43.62027        -1.03728
C         18.17699        45.81740        -0.88940
C         16.93861        46.58606        -1.14445
C         18.17561        48.78468        -1.26174
C         16.90425        48.04484        -0.91878
C         18.15471        50.34926        -1.03764
C         16.84919        50.89726        -0.49004
C         18.03069        53.04293        -0.06045
C         16.83213        52.26745        -0.17671
C         18.02947        54.41932        -0.13838
C         20.66481         6.18021         0.40948
C         20.65372         7.60470         0.32717
C         19.50063         8.38067         0.38537
C         20.71852        10.48228        -0.16514
C         19.49438         9.80129         0.15975
C         20.73481        11.78328        -0.71519
C         19.43344        12.46848        -0.89356
C         20.71137        14.63055        -1.64182
C         19.41421        13.93890        -1.29143
C         20.73893        16.11360        -1.65336
C         19.51512        16.78174        -1.49245
C         21.22081        19.13436        -1.89559
C         19.33972        18.15997        -1.85498
C         21.03862        20.55122        -1.52808
C         19.68706        21.15251        -1.39963
C         20.83867        23.19448        -0.36947
C         19.72902        22.63381        -1.21670
C         20.68951        24.50229         0.28661
C         19.56030        25.38928        -0.12388
C         20.69322        27.38119         0.93684
C         19.39341        26.70297         0.57328
C         20.72138        28.86164         0.78056
C         19.42926        29.61315         0.79043
C         20.72769        31.69226         1.13461
C         19.47076        31.05589         1.11782
C         20.72422        33.16616         1.14714
C         19.50760        33.88306         1.64290
C         20.78205        36.11035         1.29528
C         19.53811        35.40423         1.62435
C         20.72607        37.44222         0.95269
C         19.47116        38.16693         0.83900
C         20.69461        40.23759         0.18401
C         19.45815        39.53340         0.49903
C         20.64757        41.60578        -0.18215
C         19.41999        42.31607        -0.27734
C         20.66573        44.46503        -0.50364
C         19.41619        43.72371        -0.55838
C         20.68623        45.91244        -0.52549
C         19.38455        46.59738        -0.53500
C         20.67880        48.80055        -0.74441
C         19.37596        48.10240        -0.62294
C         20.66434        50.21752        -0.58382
C         19.35794        50.85448        -0.24289
C         20.59717        53.07975        -0.05803
C         19.31137        52.29937         0.14671
C         20.54410        54.54397         0.42018
C         19.22693        55.24454         0.11496
C         20.46747        57.27554        -0.71842
C         19.26899        56.62746        -0.37919
C         20.53527        58.56334        -1.31049
C         23.07524         3.32812         0.45749
C         21.87464         4.04262         0.50899
C         23.07650         6.08284        -0.29408
C         21.83790         5.43658         0.26740
C         23.18430         7.54989        -0.03207
C         21.96738         8.27979         0.31385
C         23.22914        10.39412        -0.39619
C         21.98585         9.80142         0.08610
C         23.20568        11.75033        -0.80098
C         21.96179        12.44008        -0.97938
C         23.29063        14.55193        -1.33263
C         22.01280        13.82637        -1.49874
C         23.34212        16.02558        -1.49403
C         22.06619        16.81057        -1.76184
C         23.22841        18.80211        -0.54632
C         22.14618        18.27119        -1.41898
C         23.23106        20.26991        -0.20903
C         22.17409        21.16844        -0.77425
C         23.20806        23.08716         0.41367
C         22.00001        22.48959        -0.12937
C         23.22887        24.47141         0.69319
C         21.96165        25.19700         0.80756
C         23.18802        27.36883         0.85296
C         21.99241        26.67233         0.85469
C         23.19782        28.83553         0.91178
C         21.99973        29.56904         0.97252
C         23.22264        31.70734         1.04626
C         21.96821        30.99300         1.03717
C         23.26524        33.11745         1.11161
C         22.01861        33.90643         1.08915
C         23.23681        35.97426         0.71652
C         22.08968        35.36458         1.52485
C         23.30935        37.47525         0.85686
C         21.98331        38.21688         0.81630
C         23.17081        40.13323        -0.30910
C         21.93855        39.55437         0.24627
C         23.19648        41.60387        -0.55514
C         21.89078        42.33087        -0.51418
C         23.14242        44.51138        -0.20263
C         21.87383        43.79314        -0.39940
C         23.16827        45.96781        -0.44248
C         21.88509        46.63674        -0.58952
C         23.12874        48.78387        -1.02298
C         21.87183        48.07198        -0.78197
C         23.13898        50.30920        -0.74679
C         21.85241        50.92868        -0.40953
C         23.05488        52.70188         0.67253
C         21.84692        52.23045         0.19368
C         23.02395        54.87622         0.58425
C         21.77232        55.36062         0.17910
C         22.94675        57.16362        -0.95786
C         21.72744        56.60002        -0.48888
C         23.02461        58.52881        -1.40271
C         21.77020        59.20860        -1.58922
C         22.97530        61.26166        -2.10891
C         21.77689        60.56897        -2.00673
C         24.30024         3.96311         0.22405
C         25.57219         6.03707        -0.16775
C         24.36529         5.34984        -0.04208
C         25.62653         7.45352        -0.34929
C         24.38693         8.21217        -0.22290
C         25.65429        10.29646        -0.73034
C         24.42859         9.65080        -0.38934
C         25.66058        11.67352        -1.02145
C         24.45294        12.40150        -1.03156
C         25.72951        14.52264        -0.95312
C         24.45641        13.84179        -1.14184
C         25.68389        15.94058        -0.67627
C         24.54222        16.69686        -0.89291
C         25.63322        18.74241         0.03115
C         24.51119        18.07989        -0.47464
C         25.65416        20.16215         0.30300
C         24.48214        20.92887         0.20320
C         25.63440        23.02515         0.80374
C         24.43939        22.34602         0.46318
C         25.65341        24.43482         0.88286
C         24.45194        25.17848         0.81559
C         25.66251        27.32979         0.82418
C         24.46405        26.63920         0.84487
C         25.68436        28.79218         0.63662
C         24.43285        29.55656         0.84265
C         25.70927        31.70337         0.85011
C         24.43999        30.95169         0.91784
C         25.70392        33.11596         1.23254
C         24.51420        33.81928         1.19357
C         25.71855        35.90582         0.73767
C         24.54570        35.27490         1.01320
C         25.73086        37.30802         0.27381
C         24.51839        38.08636         0.34502
C         25.79514        40.21614        -0.15831
C         24.53102        39.43138        -0.20439
C         25.70154        41.64116        -0.42563
C         24.49208        42.30455        -0.44907
C         25.71868        44.54358        -0.36717
C         24.46399        43.77050        -0.28033
C         25.66025        45.95337        -0.31042
C         24.38297        46.63586        -0.46213
C         25.70445        48.84021        -0.73802
C         24.42942        48.05465        -0.88556
C         25.70687        50.37735        -0.81182
C         24.39736        50.98944        -0.39203
C         25.57200        53.05610         0.40248
C         24.34834        52.19880         0.26874
C         25.53714        54.60908         0.24570
C         24.22856        55.27150        -0.02856
C         25.93211        57.44645        -0.95836
C         24.09005        56.32780        -0.93317
C         25.54578        58.78605        -0.96011
C         24.26173        59.27087        -1.44042
C         24.18652        60.64250        -1.77890
C         26.83518         8.12827        -0.52900
C         28.11764        10.22102        -0.80011
C         26.89906         9.54293        -0.70895
C         28.19875        11.63928        -0.98121
C         26.94135        12.37227        -1.42303
C         28.19834        14.54755        -0.95722
C         26.91761        13.82252        -0.99194
C         28.20857        15.85164        -0.23987
C         26.87156        16.53072        -0.04007
C         28.20065        18.70879         0.40533
C         26.86937        17.98082         0.30615
C         28.14749        20.18378         0.46706
C         26.91390        20.82198         0.56786
C         28.20363        22.94722         1.15831
C         26.87733        22.23578         0.98386
C         28.19777        24.44225         1.24897
C         26.95147        25.14782         0.82225
C         28.24869        27.37788         0.99506
C         26.97388        26.64502         0.71545
C         28.26205        28.76793         1.02960
C         27.02597        29.49782         0.66440
C         28.26869        31.66849         1.23942
C         27.03470        30.98720         0.77607
C         28.26504        33.05254         1.31324
C         26.99205        33.85994         1.45638
C         28.21131        35.97185         1.04924
C         27.01623        35.14190         0.61513
C         28.23665        37.44700         0.84909
C         27.02681        38.12424         0.29538
C         28.20167        40.28269         0.66685
C         26.95867        39.60064         0.33435
C         28.28969        41.65932         0.96468
C         26.90813        42.45094        -0.82716
C         28.13967        44.54785         0.07024
C         26.95515        43.86928        -0.33640
C         28.07993        45.96885         0.15141
C         26.88259        46.65629        -0.14234
C         28.11765        48.90333         0.15903
C         26.83435        48.13875        -0.03955
C         28.12936        50.35617        -0.03992
C         26.90618        51.03526        -0.16391
C         28.08062        53.15902         0.24442
C         26.86524        52.41139         0.12829
C         28.01904        54.59458         0.20739
C         26.84188        55.31396        -0.01420
C         26.92332        56.73044        -0.24588
C         29.40042        12.30521        -0.86139
C         30.69554        14.49575        -0.47378
C         29.51929        13.76903        -0.94477
C         30.69842        15.89911        -0.31482
C         29.46107        16.63049        -0.19113
C         30.68096        18.76588        -0.04779
C         29.46532        18.01005         0.04721
C         30.59680        20.20235         0.07465
C         29.39774        20.89659         0.48110
C         30.66212        23.03949         0.61588
C         29.44517        22.28324         0.72670
C         30.72443        24.43812         0.86151
C         29.48738        25.17864         1.18046
C         30.71429        27.29816         1.12493
C         29.49205        26.65045         1.03682
C         30.71384        28.72703         1.52096
C         29.46530        29.50429         1.33011
C         30.71214        31.65599         1.74504
C         29.47274        30.89918         1.43706
C         30.70557        33.10486         1.47089
C         29.51381        33.77495         1.34661
C         30.76372        36.00499         0.97164
C         29.50314        35.22321         0.99246
C         30.75468        37.48995         0.87601
C         29.50852        38.17258         0.68891
C         30.68205        40.30997         0.46675
C         29.46399        39.57771         0.56246
C         30.68077        41.71204         0.40107
C         29.44984        42.42577         0.59360
C         30.63384        44.52576         0.25910
C         29.39725        43.83166         0.34739
C         30.65016        45.97956         0.47035
C         29.30916        46.73005         0.49765
C         30.59699        48.87813         0.23551
C         29.36801        48.17363         0.27013
C         30.57175        50.30571         0.21789
C         29.36214        51.05686         0.15291
C         29.31503        52.47428         0.21107
C         31.90266        16.62992        -0.12587
C         33.23337        18.64250         0.19170
C         31.94136        18.03673        -0.05854
C         33.54030        19.95939        -0.16265
C         31.68760        21.02882        -0.25348
C         33.12727        23.02530         0.16967
C         31.84999        22.37149         0.17514
C         33.15079        24.43896         0.40749
C         31.93003        25.14713         0.70043
C         33.18208        27.26817         0.88873
C         31.96293        26.57934         0.93803
C         33.28700        28.68435         1.32541
C         32.03837        29.43679         1.70236
C         33.27276        31.70814         1.34701
C         32.06690        30.94271         1.79244
C         33.23778        33.07066         1.22763
C         32.00030        33.82899         1.54025
C         33.27520        36.01945         0.98941
C         32.02658        35.31456         1.36526
C         33.23870        37.49055         1.00624
C         31.94623        38.17625         0.79575
C         33.21145        40.31981         0.24876
C         31.93038        39.53652         0.14799
C         33.16067        41.73571         0.10411
C         31.91404        42.42955         0.17629
C         33.11740        44.59167         0.01879
C         31.87777        43.84679         0.15297
C         33.07942        46.01236        -0.00764
C         31.88633        46.74510         0.19729
C         31.83276        48.14688         0.18856
C         34.52838        20.86775         0.25342
C         35.58315        23.04843         0.09938
C         34.39469        22.29802         0.11515
C         35.60054        24.46898         0.09247
C         34.36932        25.17364         0.33096
C         35.58754        27.31882         0.22180
C         34.39641        26.59521         0.50655
C         35.62800        28.76660         0.25423
C         34.53495        29.45586         0.99770
C         35.64049        31.67789         0.35222
C         34.52698        30.96052         1.03391
C         35.51857        33.13478         0.03291
C         34.32790        33.85005         0.56107
C         35.64146        36.01905         0.30014
C         34.41422        35.32947         0.67983
C         35.67883        37.41700         0.26654
C         34.50262        38.21776         0.64350
C         35.65875        40.33627        -0.01386
C         34.42876        39.64779         0.25089
C         35.61547        41.73519        -0.15762
C         34.39208        42.46372        -0.04738
C         34.33394        43.88063        -0.10406
C         36.78622        25.18958        -0.13177
C         37.90331        27.32104        -0.64262
C         36.78321        26.61497        -0.19319
C         37.81506        28.77043        -1.00076
C         36.67580        29.46615        -0.30080
C         37.92905        31.68971        -0.56955
C         36.60169        30.95090        -0.55397
C         37.96345        33.07617        -0.49218
C         36.79539        33.86241        -0.18031
C         38.06918        35.98981        -0.20378
C         36.83063        35.25824        -0.04008
C         38.07917        37.36359        -0.25207
C         36.87340        38.14494        -0.08994
C         36.85879        39.54366        -0.15986
C         39.10495        29.53973        -0.83983
C         40.41248        31.62878        -0.64547
C         39.14183        30.90320        -0.71211
C         40.46306        32.97349        -0.68411
C         39.22818        33.82142        -0.87747
C         39.36304        35.19480        -0.19360
O         19.07878        12.89314        -2.25214
O         25.94917        50.67084        -2.28602
O         20.25417        18.66276        -2.78817
O         22.79439        38.09522         2.09384
O         28.95332        14.41915        -2.18713
O         21.22036        33.72432        -0.12489
O         22.71759        19.28348         0.76114
O         26.47665        31.59192        -0.42945
O         25.13949        56.61611        -1.79434
O         16.41302        35.81623         3.04612
O         17.08150        42.50797        -1.97277
O         23.12744        49.74027        -2.11229
O         26.43551        29.08428        -0.60498
O         19.73266        54.94431         1.52100
O         21.36187        14.03256        -2.80192
O         19.64316        34.60668         2.88870
O         19.23225        51.24982         1.16272
O         11.15575        36.81634        -0.11636
O         26.55008        37.52390        -0.95098
O         25.36810        48.22589        -2.00889
O         13.26697        32.20142         2.66228
O         14.47202        26.59354        -2.33242
O         28.82469        24.87423         2.49368
O         19.54987        25.61676        -1.56580
O         28.02521        36.84302         2.19703
O         16.68404        25.46665        -2.43662
O         23.03276        53.82682         1.50572
O         31.35691        28.86141         2.84999
O         20.07396        29.29239        -0.48100
O         13.42509        36.86035         3.07429
O         27.70823        42.02783        -1.64703
O         32.06798        34.74324         2.71258
O         19.80353        26.80727         1.97418
O         23.74443        39.42971        -1.46829
O         18.30327        50.99290        -2.29045
O         27.49752        18.19380         1.60058
O         34.34527        28.87341         2.32863
O         22.09687        21.32801        -2.22874
O         12.47769        27.88144        -1.81187
O         19.44892        23.29677        -2.51499
O         34.09298        38.06915         2.06505
O         22.50218        41.92789        -1.82634
O         31.42013        31.38845         3.01250
O         34.42853        33.46079        -0.88263
O         22.11740         9.21252         1.42900
O         23.82176        44.07877         1.04019
O          8.68406        31.33311         2.04380
O         27.46414        15.71039         1.01695
O         25.59584        53.95301         1.54392
O         10.40151        33.78778        -0.40675
O         29.98338        46.32255         1.73415
O         16.04450        28.98309        -1.54097
O         16.24410        46.32584        -2.43009
O         22.92091         5.93409        -1.83157
O         27.10451        25.79361        -0.49375
O         27.51383        22.37777         2.31435
O         11.40976        25.39035        -2.31748
O         35.72936        31.43195         1.77433
O         22.96689        16.45011        -2.85866
O         32.64334        20.51411        -1.11531
O         12.70739        28.80120         1.57511
O         19.13961        47.47563         0.66661
O         30.21040        35.44271        -0.28497
O         20.99736        24.53055         1.70041
O         27.12620        48.60388         1.29758
O         17.00044        22.54749        -3.16668
H         17.87174        22.77491        -3.56949
O         25.06270        51.72728        -2.69865
H         24.27770        51.22259        -3.03713
O         18.29113        48.56860        -2.67986
H         18.23119        49.50107        -3.06460
O         36.04741        31.07301        -1.90007
H         36.57451        30.46103        -2.47365
O          9.94322        27.63236        -1.67424
H         10.34047        26.89084        -2.21515
O          9.16258        35.39692         2.65622
H          8.29404        34.96162         2.78870
O         22.93905        35.73035        -0.67893
H         23.68636        36.04888        -1.22801
O         39.12648        34.11803        -2.30489
H         38.98380        33.27133        -2.77828
O         27.18738        34.78413        -0.76283
H         27.13485        35.60749        -1.30156
O         12.90986        41.08625        -1.44047
H         12.93523        41.87086        -2.02937
O         10.50303        40.81883         2.80206
H         10.71094        39.99417         3.30945
O         26.97881        12.39868        -2.88505
H         27.73317        12.98265        -3.13428
O         21.75116         6.69532        -2.21422
H         22.11626         7.32839        -2.87935
O         17.91371        28.60947         2.40024
H         18.56929        27.92188         2.68081
O         15.18045        44.01389        -2.64321
H         15.67532        43.20271        -2.91558
O         11.48778        38.40725         3.18657
H         12.03353        37.75860         3.70141
O         27.29941        42.28307         1.64936
H         26.60025        41.64483         1.89798
O         22.42287        35.41018         2.92042
H         22.48064        36.35934         3.17857
O         10.15049        27.08315         1.92450
H          9.44705        26.78851         2.53925
O         14.34861        20.98586        -2.45324
H         15.00918        21.45681        -3.01150
O         40.42004        35.91466        -0.82083
H         40.30533        35.78709        -1.78827
O         20.64593        53.27163        -1.51655
H         20.16223        52.53287        -1.95713
O         26.97762        34.31423         2.83980
H         27.02343        33.53585         3.43273
O         31.85112        39.23059        -1.30605
H         30.96494        38.84549        -1.48200
O         37.50796        28.81725        -2.47458
H         36.86698        28.09573        -2.65591
H          4.94275        31.37831        -0.39677
H          5.00118        33.82472        -0.35229
H          7.39812        26.93961         0.43214
H          6.11974        29.16698        -0.14383
H          6.29076        35.98025        -0.20808
H          7.48981        38.13865         0.15995
H         10.28454        22.79219         0.48154
H          9.03464        24.74468         0.85166
H          8.60256        40.25249         0.75974
H          9.91326        42.52567         0.90780
H         12.82155        18.79750         0.64611
H         11.57519        20.82470         0.49619
H         11.11472        44.43060         0.12879
H         12.31001        46.41028        -0.31364
H         15.10201        14.42698         0.47898
H         13.95690        16.62432         0.54808
H         13.54107        48.50965        -0.39095
H         14.70733        50.63195        -0.37682
H         17.38257        10.07064         0.58761
H         16.23639        12.26026         0.47828
H         15.86718        52.75886         0.03089
H         17.09442        54.94242        -0.39382
H         19.72211         5.65724         0.63476
H         18.52754         7.87941         0.50011
H         18.31455        57.08880        -0.67832
H         19.60219        59.11888        -1.49008
H         23.06506         2.25019         0.67151
H         20.94846         3.52770         0.80367
H         22.97295        62.31915        -2.40747
H         20.82153        61.07729        -2.19967
H         25.23479         3.38801         0.29742
H         26.51796         5.47820        -0.09543
H         26.22574        59.53702        -0.52899
H         25.11343        61.23369        -1.79683
H         27.77296         7.55252        -0.54820
H         29.05394         9.65514        -0.67673
H         28.97570        55.13658         0.15069
H         27.82121        57.25672         0.11421
H         30.29733        11.74141        -0.56011
H         31.62638        13.93520        -0.30069
H         31.52675        50.84792         0.28156
H         30.25213        53.04627         0.27152
H         32.85337        16.07686        -0.10958
H         33.99089        18.02468         0.69638
H         34.01740        46.56383        -0.17309
H         32.76841        48.71382         0.07290
H         35.45754        20.48971         0.70582
H         36.54376        22.51478         0.04296
H         36.54587        42.28876        -0.35561
H         35.26948        44.44915        -0.21800
H         37.71730        24.64576        -0.35010
H         38.80480        26.76391        -0.94018
H         39.03866        37.88367        -0.39434
H         37.80129        40.06922        -0.37824
H         40.05006        28.97937        -0.91054
H         41.33747        31.03707        -0.56738
H         41.43190        33.49481        -0.65576
H         39.65086        35.03718         0.88214
