         320
 CSIRO Nanostructure Databank - Neutral Graphene Oxide Data Set
C         30.45163        31.83349        -1.16151
C         30.42930        33.05173        -0.94050
C         30.33467        36.11012         0.00321
C         30.28752        37.26321         0.42262
C         30.34946        40.44646         0.06155
C         30.45276        41.66005        -0.22195
C         32.95143        29.09240        -1.54517
C         31.82954        29.63816        -1.55611
C         32.88444        31.74374        -0.84106
C         31.25975        30.69375        -0.72035
C         32.76440        33.07147        -0.12652
C         31.49479        33.85124        -0.27355
C         32.72959        36.03470         0.27591
C         31.54746        35.34353        -0.44806
C         32.68188        37.34144         0.66324
C         31.38797        38.22586         0.77291
C         32.75167        40.18320        -0.16376
C         31.40302        39.39352        -0.24529
C         32.84185        41.71308        -0.37366
C         31.55640        42.47732        -0.50880
C         32.85357        44.30984        -1.34352
C         31.78804        43.78739        -0.96708
C         35.79977        27.77006        -1.54756
C         35.39359        28.89166        -0.84184
C         34.19370        29.62478        -0.98957
C         35.20192        31.51080         0.31759
C         34.07829        30.93191        -0.51875
C         35.18760        33.04670         0.34102
C         34.05088        33.77061         0.15488
C         35.24511        35.96313         0.63635
C         33.93919        35.19364         0.70264
C         35.20118        37.37133         0.81015
C         33.93855        38.08938         0.97843
C         35.30568        40.14584        -0.43107
C         33.97317        39.37688        -0.45547
C         35.32844        41.64436        -0.63600
C         34.14810        42.31959        -0.79707
C         35.18446        44.51195        -0.37515
C         34.25726        43.78073        -1.35063
C         35.41348        45.98796        -0.54159
C         38.14570        27.81155        -1.23718
C         36.93763        27.31588        -1.84893
C         37.92839        28.79950        -0.29065
C         36.54355        29.34008         0.10247
C         37.71806        31.52591         0.73841
C         36.56112        30.84841         0.02347
C         37.70373        33.05107         0.44447
C         36.40036        33.72584         0.95683
C         37.69511        35.91855         1.15311
C         36.42460        35.22522         0.73043
C         37.72186        37.36994         0.67153
C         36.45804        38.19234         0.98691
C         37.82623        40.21908         0.19656
C         36.52825        39.45246         0.09071
C         37.86129        41.71139        -0.00074
C         36.64861        42.40126        -0.55800
C         37.62846        44.58802         0.47355
C         36.66053        43.95064        -0.52651
C         37.61488        46.08066         0.55078
C         36.36056        46.58232        -0.02317
C         40.86990        25.65097        -2.52261
C         39.72966        26.10230        -2.33195
C         40.71603        27.88696        -0.99025
C         39.47234        27.51240        -1.89642
C         40.46475        28.89216         0.08871
C         39.07927        29.35956         0.53436
C         40.25343        31.54613         0.70750
C         39.08499        30.87660         0.54087
C         40.29305        33.02840         0.38910
C         38.99297        33.72890         0.98662
C         40.05448        35.95816         1.26055
C         38.98396        35.20276         0.62227
C         40.26518        37.37173         0.74094
C         38.98916        38.12759         1.22559
C         40.28402        40.35456         0.97013
C         39.04711        39.55531         0.72198
C         40.24947        41.71408         0.92643
C         38.86785        42.39685         0.94038
C         40.21482        44.70812         0.90666
C         38.89561        43.92970         0.84905
C         40.30022        46.25423         0.80746
C         38.88243        46.88932         0.61667
C         40.01171        48.72169        -0.55423
C         39.03695        48.21305         0.01845
C         43.33302        25.22822        -1.73717
C         42.06646        25.92331        -1.76876
C         42.87970        27.16869         0.33219
C         41.96236        27.04269        -0.93811
C         42.89818        28.63408         0.92294
C         41.59588        29.36182         0.96021
C         42.77681        31.64953         0.68977
C         41.53362        30.88525         1.22182
C         42.85420        33.09622         1.29274
C         41.55531        33.76954         0.79645
C         42.86006        35.86106         0.91326
C         41.76475        35.04318         0.26058
C         42.84974        37.36915         0.56739
C         41.58242        38.08576         1.18827
C         42.83506        40.26767         0.70741
C         41.53576        39.55606         0.77111
C         42.83857        41.77383         0.95175
C         41.50607        42.47798         0.51300
C         42.72252        44.66634         0.12320
C         41.58662        43.98807         0.91908
C         42.75068        46.15586         0.15285
C         41.37250        46.71881        -0.20363
C         42.54615        48.56138        -1.28472
C         41.44386        48.38829        -0.30554
C         44.21269        25.58164        -0.93000
C         45.35911        26.69701         0.98425
C         44.30910        26.51151         0.13559
C         45.38658        28.90040         1.30667
C         44.11704        29.48585         0.98257
C         45.27731        31.57878         0.59686
C         44.08319        30.90170         0.81778
C         45.42570        33.06365         0.87064
C         44.12221        33.81880         0.77695
C         45.36892        35.95923         0.28785
C         44.16589        35.16781         0.59778
C         45.34488        37.33737         0.35313
C         44.16617        37.98761         1.08668
C         45.41625        40.27173         0.92782
C         44.12140        39.53019         1.03540
C         45.38746        41.75624         0.60792
C         44.04245        42.33114         0.11447
C         45.30240        44.62491         0.04324
C         43.98514        43.86992        -0.04906
C         45.13145        46.00846        -0.63951
C         44.04256        46.93059        -0.21384
C         43.60138        47.91292        -1.30926
C         47.69564        27.32610         0.94628
C         46.77282        26.52946         0.74664
C         47.99569        28.79851         0.89788
C         46.59208        29.46178         0.91033
C         47.75001        31.48737        -0.02826
C         46.42657        30.73726         0.09389
C         47.80046        32.98182         0.03467
C         46.47465        33.71010        -0.04654
C         47.80348        35.86672        -0.13334
C         46.60641        35.21863         0.05531
C         47.76990        37.32993        -0.56732
C         46.48510        38.21262        -0.15055
C         47.95721        40.26870         0.49645
C         46.70765        39.41196         0.83921
C         47.91966        41.71713         0.05303
C         46.63463        42.46387         0.18626
C         47.78668        44.55847        -0.72508
C         46.44653        43.77572        -0.59565
C         47.45596        45.81482        -1.56928
C         46.26165        46.22483        -1.39142
C         50.18411        28.77586        -0.38083
C         48.74264        29.08734        -0.42718
C         50.15624        31.47764        -0.81154
C         48.80722        30.75804        -0.84389
C         50.02866        32.91125        -1.00484
C         48.99336        33.69848        -0.49977
C         50.30592        35.80816        -0.08115
C         49.07849        35.12904        -0.30197
C         50.16241        37.22226         0.51655
C         49.17524        38.02289        -0.38822
C         50.39992        40.19955        -0.36241
C         49.15341        39.48468         0.06479
C         50.35655        41.67423        -0.51838
C         49.01076        42.33576        -0.48994
C         50.26435        44.25140        -1.24207
C         48.88308        43.66631        -1.30702
C         51.25078        29.40009        -0.40442
C         52.52084        31.67679        -0.62452
C         51.38854        30.82006        -0.64818
C         52.74870        32.89708        -0.44889
C         51.89179        33.98219        -0.78151
C         52.59570        35.96122         0.55444
C         51.59940        35.15885        -0.09958
C         52.66664        37.17502         0.76633
C         51.51446        38.08190         0.67990
C         52.75528        40.39982        -0.06270
C         51.62866        39.50205         0.21363
C         52.78181        41.58430        -0.42040
C         51.64443        42.54304        -0.19893
C         51.37727        43.74641        -1.06596
O         47.53219        37.24373        -2.05132
O         48.98224        39.86807         1.46884
O         32.92219        41.05418         0.95482
O         50.97920        33.59986        -1.79609
O         38.80896        39.62304        -0.73219
O         43.15581        44.18523        -1.20892
O         51.41453        39.15729         1.61532
O         45.23084        27.67706         2.00325
O         44.77385        40.07592         2.23122
O         38.06244        46.71357         1.78757
O         39.47800        44.40657         2.14178
O         48.12968        32.15388         1.20195
O         36.19707        39.38527        -1.32190
O         40.90823        29.33722        -1.24946
O         50.50469        40.78114        -1.68639
O         31.81771        33.23274         1.00808
O         37.77755        42.00139        -1.41711
O         42.16907        39.86285        -0.52239
O         42.01447        28.64127         2.15271
O         46.15475        42.51261         1.57421
O         32.89034        32.06673        -2.22055
H         33.14494        31.27267        -2.73802
O         39.50116        28.32238        -3.07153
H         40.08250        29.09704        -2.89368
O         33.84490        38.64156        -1.61411
H         34.75521        38.46755        -1.96183
O         33.72176        34.95724         2.14348
H         32.93598        34.35933         2.20826
O         48.80052        29.25482         1.96374
H         48.32228        29.13090         2.80830
O         42.91700        37.51133        -0.85083
H         42.00329        37.39257        -1.21434
O         48.25038        36.11194        -2.60300
H         49.19336        36.42866        -2.59800
O         34.74988        43.72106        -2.66479
H         35.60419        44.21927        -2.72800
O         44.35681        37.62573         2.47101
H         45.17773        38.09366         2.76534
O         37.67216        35.90460         2.60815
H         37.53328        34.95740         2.87054
O         33.83622        38.90368         2.09531
H         34.73551        39.03883         2.48603
O         40.74428        46.72646         2.09198
H         40.08111        46.41417         2.75001
O         44.47885        47.73548         0.87400
H         43.74642        48.36568         1.08675
O         41.43418        31.03030         2.66045
H         41.73514        30.17103         3.05170
O         41.68495        38.11719         2.60931
H         41.99591        37.22474         2.90986
O         42.04431        44.16862         2.26323
H         41.31609        43.92621         2.87516
O         38.97602        38.18258         2.65525
H         39.05274        37.26066         3.00597
O         40.25066        37.39386        -0.69222
H         39.69922        38.14829        -1.01728
O         40.96381        46.20809        -1.47224
H         41.67270        46.39221        -2.12623
O         49.83461        38.04878        -1.67411
H         49.26051        38.53198        -2.30913
O         42.71725        35.68899         2.34685
H         43.59849        35.85711         2.75360
O         40.20963        33.05413        -1.08543
H         40.97596        32.49727        -1.38433
O         46.02218        38.88980        -1.33734
H         45.52193        38.25668        -1.89629
O         38.27866        42.10096         2.23504
H         38.68028        42.72270         2.88446
O         45.86188        33.20861         2.24519
H         45.07207        33.04002         2.81208
O         39.05528        33.50840         2.43043
H         38.59557        32.64872         2.63491
O         31.24472        38.92394        -1.55516
H         30.67342        38.12443        -1.55537
O         45.54550        44.93119         1.40545
H         46.48100        45.21876         1.51019
O         36.44860        38.72024         2.33750
H         37.29338        38.47003         2.80238
O         46.91358        38.80438         2.11866
H         47.12837        39.50690         2.76888
O         48.40460        30.81448        -2.21586
H         47.41170        30.83611        -2.24024
O         37.73028        37.27617        -0.75902
H         38.25472        36.47272        -0.99332
O         42.99301        41.98509         2.34992
H         43.77198        41.46518         2.66713
O         41.37487        42.45469        -0.92211
H         41.46762        41.51031        -1.20558
O         48.18890        44.99672         0.55949
H         49.09059        45.38138         0.49451
O         45.97582        43.44937        -1.90806
H         46.74238        43.28800        -2.50738
O         43.05716        33.03733         2.71089
H         42.35779        32.44221         3.08475
O         49.60178        37.08689         1.81495
H         49.59194        37.97392         2.24195
O         46.02202        30.30481        -1.27273
H         46.34390        29.37650        -1.39704
O         38.88480        28.90258         1.90543
H         38.55555        29.68217         2.41961
O         51.59657        42.92085         1.14617
H         52.44785        43.32470         1.41077
O         48.56456        43.30705        -2.64416
H         49.30558        42.78230        -3.01600
O         37.59104        33.22195        -0.97723
H         38.46996        33.02799        -1.38369
O         34.69240        44.25261         0.92239
H         35.18053        44.80232         1.57099
O         40.36031        35.76688         2.53571
H         39.99712        34.88160         2.82149
O         34.86844        31.14634         1.70965
H         35.08766        30.17990         1.81337
O         37.11198        44.39748        -1.83862
H         37.80230        43.75490        -2.13428
O         42.22882        26.32041         1.27796
H         41.90888        26.87677         2.02960
O         36.18110        28.79713         1.42954
H         37.02124        28.52560         1.87499
O         31.74096        35.57867        -1.84252
H         31.18041        34.95002        -2.34702
O         37.53950        31.30518         2.19829
H         36.58614        31.52465         2.39265
O         36.25516        33.56753         2.40336
H         35.38078        33.97709         2.63186
O         43.94459        41.75769        -1.20022
H         43.44906        42.39832        -1.76503
O         48.04238        28.44533        -1.46572
H         48.47592        28.68382        -2.31531
O         41.87710        48.91923         0.91861
H         41.37525        48.47193         1.64470
O         31.27555        38.76881         2.05611
H         31.39688        38.06805         2.72711
O         30.94363        30.27521         0.53721
H         30.50191        30.99603         1.03155
O         45.97781        33.48648        -1.40234
H         46.50780        34.03707        -2.01915
O         42.57262        31.78102        -0.74886
H         43.44869        31.92472        -1.17054
O         41.38026        35.37046        -0.99095
H         40.75476        34.66789        -1.31504
