         234
 CSIRO Nanostructure Databank - Neutral Graphene Oxide Data Set
C          1.28261         2.01012        -0.21490
C          1.21424         3.37313        -0.31892
C          2.50869         1.29436        -0.32899
C          2.43552         4.14806        -0.74282
C          1.23019         6.36557        -0.34911
C          1.19397         7.74217        -0.17606
C          2.44724         5.64257        -0.46508
C          2.37167         8.53130        -0.23686
C          1.15178        10.68711         0.02878
C          1.13305        12.02382         0.27852
C          2.37451         9.92584        -0.05711
C          2.37183        12.75839         0.57690
C          1.15008        15.08904         0.64549
C          1.16475        16.42661         0.38668
C          2.37971        14.28588         0.77520
C          2.38459        17.16486         0.16945
C          2.38334        18.58121         0.04411
C          3.73434         1.97961        -0.34565
C          3.68664         3.46199        -0.22985
C          4.97609         1.34083        -0.32703
C          4.96924         4.23051        -0.21304
C          3.66901         6.34391        -0.48261
C          3.62457         7.83716        -0.72271
C          4.93198         5.68533        -0.46655
C          4.90045         8.54455        -0.36760
C          3.63394        10.65390         0.02086
C          3.64084        12.04067         0.27899
C          4.87556         9.95062        -0.13863
C          4.85708        12.77202         0.18905
C          3.72413        15.04756         0.63657
C          3.61115        16.45624         0.07367
C          4.79303        14.22720        -0.06834
C          4.79698        17.15242        -0.17469
C          3.56398        19.28158        -0.09517
C          4.81025        18.58597        -0.19636
C          6.22330         2.04655        -0.34519
C          6.24883         3.50736        -0.36884
C          7.40962         1.32778        -0.29278
C          7.42405         4.22526        -0.44663
C          6.15246         6.39959        -0.50827
C          6.10612         7.83322        -0.47421
C          7.43145         5.69199        -0.42783
C          7.36152         8.59071        -0.51547
C          6.11330        10.66934         0.00931
C          6.08790        12.11416         0.06485
C          7.33021         9.98939        -0.10358
C          7.30570        12.87259        -0.05966
C          6.04211        14.95007        -0.49896
C          6.05054        16.46613        -0.66573
C          7.32615        14.24407        -0.31963
C          7.32487        17.14863        -0.25256
C          6.04681        19.26008        -0.18309
C          7.30193        18.56885        -0.13177
C          8.70586         1.97604        -0.44287
C          8.71802         3.50801        -0.55934
C          9.93123         1.31261        -0.00596
C          9.94913         4.20049        -0.11718
C          8.63834         6.37181        -0.33041
C          8.69251         7.83902        -0.45643
C          9.99229         5.68794        -0.39615
C          9.89590         8.57495        -0.00471
C          8.58099        10.65673         0.22764
C          8.56302        12.18632         0.24866
C          9.87356         9.94894         0.14832
C          9.84114        12.87581         0.04793
C          8.56791        14.97958        -0.30879
C          8.54932        16.44678        -0.26681
C          9.78751        14.28179        -0.24965
C          9.74936        17.18391        -0.11255
C          8.51667        19.27942         0.01968
C          9.75969        18.60818         0.02085
C         11.09776         2.02820         0.25277
C         11.05653         3.49269         0.26415
C         12.32739         1.35098         0.48260
C         12.21253         4.20378         0.86908
C         11.09745         6.45329         0.30579
C         11.07579         7.82237         0.37143
C         12.25720         5.70495         0.85823
C         12.24775         8.59872         0.85147
C         11.08434        10.72152         0.40398
C         11.01898        12.16237         0.28745
C         12.28418        10.05506         0.65212
C         12.28055        12.91861         0.37699
C         11.05249        15.01330        -0.44387
C         11.04653        16.50992        -0.29209
C         12.33972        14.20510        -0.41432
C         12.23141        17.21661         0.34619
C         11.00050        19.33592         0.04220
C         12.26509        18.70776         0.05715
C         13.54911         2.01055         0.78875
C         13.49732         3.46112         1.10889
C         14.75247         1.33864         0.82367
C         14.79219         4.22790         1.18786
C         13.58559         6.36931         0.84070
C         13.59354         7.84833         0.91224
C         14.78155         5.68752         0.88703
C         14.79661         8.57526         0.51824
C         13.61056        10.74422         1.00603
C         13.58926        12.22893         0.60876
C         14.81786         9.96578         0.47222
C         14.79291        12.88736         0.02848
C         13.57531        14.98931        -0.00589
C         13.55996        16.47167         0.14507
C         14.81112        14.21509        -0.29137
C         14.75389        17.22171        -0.36390
C         13.47974        19.39564         0.09416
C         14.76375        18.72808        -0.20867
C         16.10350         1.92142         1.17143
C         16.10611         3.48323         1.25440
C         17.13624         1.36859         0.16861
C         17.35966         4.32721         1.05913
C         16.02284         6.37191         0.52568
C         15.89770         7.75621        -0.11615
C         17.22273         5.70442         0.51539
C         17.20140         8.52007        -0.18817
C         15.99252        10.63399         0.03172
C         15.97205        12.06318        -0.27956
C         17.21293         9.91256        -0.21839
C         17.30615        12.79513        -0.41017
C         16.06036        14.95122        -0.59341
C         16.05616        16.46581        -0.51801
C         17.33514        14.26565        -0.30733
C         17.31610        17.15939        -0.20341
C         16.08046        19.33792        -0.04352
C         17.28630        18.59568        -0.03513
C         18.46676         1.56027         0.38672
C         18.64714         3.65513         0.86660
C         19.64030         1.16550        -0.36439
C         19.73158         4.18159         0.16095
C         18.41754         6.28039        -0.15729
C         18.42196         7.76032        -0.49578
C         19.71701         5.58554        -0.13006
C         19.72832         8.43393        -0.55004
C         18.47684        10.63551        -0.35647
C         18.52564        12.00055        -0.24782
C         19.74099         9.92396        -0.78355
C         19.78195        12.72021         0.04837
C         18.49783        14.97250        -0.12791
C         18.51228        16.42864        -0.10661
C         19.76013        14.23686         0.15417
C         19.76605        17.11233         0.05720
C         18.52891        19.25123         0.14239
C         19.75115        18.54257         0.15503
C         20.76093         1.95465        -0.46930
C         20.86373         3.37450        -0.22444
C         22.02835         4.06872        -0.62198
C         20.90501         6.24720        -0.48438
C         20.91577         7.71325        -0.58332
C         22.07236         5.45715        -0.67684
C         22.16029         8.43766        -0.57879
C         21.03438        10.60826        -0.38321
C         21.06381        12.01212        -0.14804
C         22.20512         9.81406        -0.43570
C         22.23298        12.78781        -0.05683
C         21.04372        14.95576         0.05748
C         21.01652        16.40921         0.07875
C         22.21375        14.19507         0.03194
C         22.20627        17.15696         0.16599
C         20.98521        19.24594         0.26661
C         22.18548        18.55691         0.26048
O          4.21383         3.91683         1.04415
O         14.51223        18.01243        -1.53483
O          8.49574        11.41918         1.49185
O          4.21770        15.29391         1.92847
O         12.92746        13.01491         1.67962
O         11.13458        15.91137        -1.62373
O         11.84666         4.96933         2.06968
O         13.76598        15.61293         1.31757
O          8.16702         8.34108        -1.73399
O         16.54337        12.36739        -1.59532
O         14.05226         3.83577         2.39921
O         19.67571        13.39096         1.36476
O         18.15452         6.73990        -1.55550
O          2.33247        13.38527         1.91021
O         16.06924        15.76004        -1.81233
O         16.82013         4.03206         2.40163
O         18.78615         2.41931         1.48937
O          8.86026         2.69288        -1.75502
O         12.86659         8.23503         2.12437
O          5.08546        14.41567        -1.50167
O         12.58341        13.78057        -1.77796
H         12.34463        14.53046        -2.37007
O          3.54678         7.96355        -2.20300
H          2.79686         7.40411        -2.49926
O         13.75560        10.70045         2.44375
H         13.18761        11.41657         2.81034
O          6.01172        16.71057        -2.11787
H          5.42606        16.01179        -2.49467
O         10.36879         5.75456        -1.81967
H          9.70434         5.24356        -2.33125
O          2.51739         4.03394        -2.20847
H          1.62646         4.21373        -2.57534
O         11.90714        17.18743         1.76500
H         12.43318        16.45918         2.17703
O         19.70593        10.06038        -2.26414
H         20.42810         9.50270        -2.62517
O         15.48717         7.49695        -1.50727
H         16.29865         7.17513        -1.97221
O         16.45085         1.42455         2.47751
H         16.93234         2.14602         2.94570
H          0.36195         1.43799        -0.02602
H          0.24084         3.87456        -0.22254
H          2.49753         0.19527        -0.32946
H          0.27903         5.81675        -0.31737
H          0.22662         8.21384         0.04633
H          0.19504        10.17022        -0.13068
H          0.17163        12.55004         0.35998
H          0.19933        14.60855         0.92174
H          0.21699        16.98618         0.39144
H          1.42675        19.12066         0.10558
H          5.01005         0.24075        -0.33521
H          3.55906        20.38051        -0.13035
H          7.37991         0.24319        -0.10977
H          6.05392        20.35963        -0.12105
H          9.92064         0.22115         0.13036
H          8.49223        20.37687         0.09233
H         12.34560         0.25797         0.35810
H         10.95267        20.43427        -0.01309
H         14.74722         0.25802         0.61295
H         13.47116        20.49670         0.12517
H         16.79677         0.71346        -0.64651
H         16.12830        20.41036         0.19649
H         19.64988         0.16947        -0.83226
H         18.54753        20.34699         0.23798
H         21.63798         1.50953        -0.96709
H         22.92187         3.49200        -0.90302
H         23.01474         5.94063        -0.96746
H         23.10622         7.88056        -0.58681
H         23.18748        10.29166        -0.30887
H         23.21438        12.29891        -0.13436
H         23.18763        14.70485         0.02492
H         23.17793        16.64538         0.17920
H         20.97182        20.34234         0.34555
H         23.13481        19.10508         0.33724
