         261
 CSIRO Nanostructure Databank - Neutral Graphene Oxide Data Set
C        -10.52789         0.76768         1.39066
C         -9.56434         1.55310         0.57784
C         -8.64226         0.74445        -0.32042
C         -7.32341         1.37830        -0.62702
C         -6.07139         0.58086        -0.84026
C         -4.84602         1.27862        -1.37506
C         -3.52180         0.54392        -1.22159
C         -2.25345         1.32036        -0.95458
C         -0.96971         0.57853        -0.54640
C          0.12993         1.33792         0.15832
C          1.44774         0.63374         0.43445
C          2.51153         1.40503         1.18345
C          3.83827         0.70881         1.46185
C          5.13386         1.47793         1.36391
C          6.45145         0.72279         1.25074
C          7.65621         1.52547         0.76426
C          8.81350         0.76907         0.16702
C          9.59373         1.50203        -0.92818
C         10.83017         0.72454        -1.31871
C         -9.06010         2.87023         1.09249
C         -8.68809         3.91318         0.34986
C         -7.32791         2.72141        -1.30134
C         -6.08377         3.54199        -1.05539
C         -4.84228         2.77674        -1.45322
C         -3.53436         3.52972        -1.40098
C         -2.35721         2.81890        -0.75291
C         -1.15378         3.59540        -0.29154
C          0.06512         2.83687         0.22829
C          1.35304         3.59192         0.42022
C          2.47510         2.90390         1.17690
C          3.80791         3.67460         1.34491
C          5.01719         2.88682         0.81130
C          6.21918         3.63264         0.32070
C          7.56757         2.99039         0.44788
C          8.72174         3.73424        -0.15069
C          9.95501         2.93502        -0.51087
C         -8.59870         5.12786        -0.16685
C         -7.50507         5.77004        -1.02719
C         -6.14460         5.03428        -1.00970
C         -4.89089         5.78952        -1.38173
C         -3.58156         5.02585        -1.29932
C         -2.31525         5.79554        -0.94806
C         -1.03867         5.06542        -0.63552
C          0.18253         5.84850        -0.18101
C          1.36290         5.08561         0.33204
C          2.40146         5.78185         1.23073
C          3.71138         5.10700         0.82145
C          4.94792         5.86477         0.48489
C          6.21482         5.13872         0.01981
C          7.52367         5.87513         0.17521
C          8.71106         5.09319        -0.15764
C         -7.33778         7.22101        -0.63586
C         -6.29084         8.02910        -1.35007
C         -4.92252         7.29417        -1.34699
C         -3.75901         7.95934        -0.66092
C         -2.44230         7.22001        -0.47256
C         -1.21461         8.01086        -0.11851
C          0.12779         7.33281        -0.05277
C          1.21273         8.08206         0.67278
C          2.42443         7.32580         1.12823
C          3.74508         8.07086         1.09698
C          5.03392         7.29795         0.91230
C          6.32155         8.03022         0.62948
C          7.51997         7.25378         0.21766
C         -6.19288         9.50194        -1.00811
C         -5.04953        10.17828        -0.80949
C         -3.78367         9.48053        -0.46798
C         -2.51857        10.18070        -0.40602
C         -1.17422         9.50933        -0.41772
C         -0.07634        10.25094         0.42222
C          1.27282         9.54555         0.37852
C          2.45511        10.20269         0.38112
C          3.74529         9.53413         0.70464
C          5.02170        10.11541         0.22161
C          6.20149         9.45963         0.26553
C        -10.72458        -0.55976         1.23247
C         -9.89679        -1.41227         0.34767
C         -8.73007        -0.75389        -0.33407
C         -7.47437        -1.56492        -0.60314
C         -6.17259        -0.91200        -0.99491
C         -4.83488        -1.67412        -1.25438
C         -3.59933        -0.90138        -0.75432
C         -2.33152        -1.61583        -0.38367
C         -0.98301        -0.91860        -0.41209
C          0.21532        -1.65618         0.16972
C          1.44826        -0.86066         0.55904
C          2.53205        -1.52525         1.38214
C          3.86934        -0.80784         1.52943
C          5.17157        -1.57453         1.53795
C          6.48213        -0.79699         1.32950
C          7.68853        -1.53597         0.77484
C          8.77919        -0.72082         0.09485
C          9.52856        -1.36817        -1.07731
C         10.79740        -0.60991        -1.38668
C         -9.86667        -2.88354         0.50916
C         -8.77059        -3.64387         0.14582
C         -7.42172        -2.95660        -0.00498
C         -6.25370        -3.80552        -0.47897
C         -4.94292        -3.14673        -0.80446
C         -3.66205        -3.83285        -0.40932
C         -2.34420        -3.12215        -0.30454
C         -1.26386        -3.76285         0.55118
C          0.08626        -3.08848         0.57255
C          1.05431        -3.71402         1.56390
C          2.46080        -2.99968         1.64953
C          3.76319        -3.86179         1.71710
C          5.14382        -3.10346         1.44962
C          6.38435        -3.83071         0.95268
C          7.62190        -3.02973         0.53210
C          8.53271        -3.58364        -0.50259
C          9.82076        -2.84471        -0.77506
C         -8.79520        -5.06426         0.18370
C         -7.59774        -5.82036         0.22211
C         -6.34026        -4.99970         0.45990
C         -5.05783        -5.81066         0.62394
C         -3.75912        -5.15013         0.30584
C         -2.49894        -5.95452         0.20980
C         -1.34788        -5.23974         0.86047
C         -0.12695        -6.05524         1.24973
C          1.13815        -5.24120         1.34250
C          2.32290        -5.77235         0.60344
C          3.64550        -5.02059         0.72566
C          4.84169        -5.66623         0.12006
C          6.30241        -5.30051         0.43096
C          7.12840        -5.57256        -0.83161
C          8.24148        -4.71972        -1.17805
C         -7.60798        -7.20686         0.21589
C         -6.37668        -8.00310         0.12127
C         -5.06959        -7.30147         0.36684
C         -3.82261        -8.12216         0.64696
C         -2.55619        -7.42583         0.18654
C         -1.46717        -8.26126         0.80209
C         -0.07947        -7.60181         0.98149
C          0.82758        -7.89158        -0.24591
C          2.19197        -7.12254        -0.07099
C          3.46665        -7.90230        -0.19627
C          4.76551        -7.13295        -0.24798
C          5.92480        -7.71143        -1.01698
C          6.95494        -6.76160        -1.47227
C         -6.37713        -9.48034         0.19937
C         -5.21846       -10.18595         0.14311
C         -3.90926        -9.56076         0.18491
C         -2.73804       -10.24129        -0.04021
C         -1.44371        -9.59669         0.07974
C         -0.29886       -10.12184        -0.45957
C          0.95518        -9.39376        -0.48249
C          2.10863        -9.95767        -0.94260
C          3.42661        -9.29885        -0.76054
C          4.59916        -9.74682        -1.54383
C          5.71884        -9.00845        -1.69699
O          1.86470         4.24518        -0.76173
O          2.04708         2.16037         2.34073
O          2.08616        -5.91233        -0.83895
O         -2.32899        -6.71428        -1.03078
O         -3.24137        -1.05286         0.64141
O         -1.33909         5.50118        -1.98717
O         -2.68226        -3.85568        -1.50081
O          8.30336        -2.47978         1.70339
O         -5.94410         4.24515         0.21069
O         -6.38584         1.14346         0.47551
O          7.97030         2.53060         1.78585
O          3.61593        -9.03920         0.69107
O         -2.03383         7.44669         0.93074
O          6.73599        -6.20753         1.39775
O          0.60332        -2.76928        -0.72899
O         -9.77890         1.44884        -0.85687
O          4.13431        -4.66660        -0.62550
O          1.43807         7.83698         2.09219
O          3.95269         5.53229        -0.53818
O         -4.78842         6.59306        -2.60462
O         -1.77513        -4.24348         1.82216
O          2.24123        -2.02131         2.71181
O         -5.02233         1.95768        -2.64490
O          0.62697         6.74973        -1.27338
O         -5.50618        -7.51534        -1.00207
O          5.31567         2.91827        -0.60192
O         -0.56160        -0.27194        -1.64512
O          4.51858        -1.20379         2.77240
O         -2.62649         0.89074        -2.29485
O          9.63121        -0.02803         1.06095
O          6.33372         5.32629        -1.38343
O         -5.74395        -3.92311        -1.79814
O          6.80388         0.02375         2.47704
O         -0.31653         2.00991         1.36519
O         -4.25205        -5.23845         1.68114
O         -7.11776        -1.39996        -2.00132
O          4.47718         1.29509         2.63551
O         -2.27211         3.30235         0.61895
O         -6.58751        -4.27357         1.74590
O          5.95036         7.58210         2.00373
O          2.01860        -0.17634        -0.61640
O         -3.34005         4.31919        -2.57799
O          0.56205        -5.86847         2.52204
O         -9.88941        -1.15541        -1.11874
O          0.17392        -7.40271        -1.35843
O         -4.14553         8.50240         0.61790
O         -8.10241         2.98356        -2.21081
O         -2.04259        -8.49280         2.15414
O         -6.95098        -2.85802         1.40685
O          3.82981         9.09268         2.11336
O          5.82207        -7.81719         0.47477
O          6.13677        -3.66887         2.35390
O         -3.50895        -8.15905         2.09067
O         -7.99445         5.71512        -2.40310
H         -8.20376         4.76401        -2.60585
O         -4.64982        -1.66722        -2.67053
H         -5.34067        -2.24297        -3.06928
O         10.69150        -2.94517         0.35036
H         10.18079        -2.68912         1.15533
O         -6.77637         8.08612        -2.72196
H         -7.05222         7.17663        -2.99934
O         10.65093         3.51751        -1.61446
H         10.89607         4.43790        -1.39032
O          8.69864         1.56607        -2.06964
H          9.06330         2.24381        -2.68133
O          2.00220         5.43430         2.55765
H          2.56477         5.90668         3.20614
O          4.06067         3.87735         2.74611
H          3.87004         3.02481         3.21099
O          0.41785        -3.47849         2.81744
H          0.85869        -4.01445         3.50940
O          8.64547        -1.31644        -2.22175
H          8.57550        -0.36921        -2.49831
O         -0.68203         9.63330        -1.78530
H         -1.23930         9.09629        -2.38771
O          3.81665        -4.43630         3.01757
H          4.08786        -3.73935         3.65300
O         -0.47369        10.33493         1.78421
H         -0.15681         9.54422         2.27052
O          0.56496        -8.24538         2.07207
H          0.00319        -8.15084         2.87120
H         11.68721        -1.18415        -1.68481
H         11.74078         1.28783        -1.57054
H         10.63847         2.88911         0.38704
H          9.61206         5.64849        -0.46704
H          8.47049         7.80236         0.11850
H          7.10830         9.95892        -0.10894
H          4.99219        11.14936        -0.15497
H          2.47593        11.29066         0.20718
H          0.01216        11.29086         0.01764
H         -2.52200        11.22911        -0.74557
H         -5.06331        11.27551        -0.72600
H         -7.12355        10.06787        -1.16531
H         -8.25183         7.74681        -0.31212
H         -9.51442         5.74989        -0.11894
H         -8.83181         2.89721         2.17479
H        -11.12255         1.31187         2.13970
H        -11.45980        -1.07235         1.87110
H        -10.80302        -3.38915         0.79095
H         -9.76522        -5.58229         0.20189
H         -8.57483        -7.73082         0.16739
H         -7.34614        -9.99922         0.21792
H         -5.25536       -11.28485         0.09885
H         -2.77337       -11.28515        -0.38896
H         -0.33101       -11.12141        -0.92250
H          2.11308       -11.01336        -1.25973
H          4.49961       -10.69188        -2.09901
H          6.52501        -9.36514        -2.35499
H          7.58218        -7.03652        -2.33258
H          8.92515        -5.07095        -1.96637
H         10.33731        -3.30790        -1.65220
