         210
 CSIRO Nanostructure Databank - Neutral Graphene Oxide Data Set
C         30.46984        31.64486         0.00693
C         30.55349        32.86566        -0.30608
C         30.55521        35.94088        -0.85223
C         30.54329        37.19668        -0.94609
C         30.49374        40.33178        -0.71212
C         30.42951        41.57401        -0.50029
C         32.83271        28.87302         0.82134
C         31.77665        29.52191         0.72474
C         32.86478        31.60551         0.27624
C         31.59420        30.87595         0.32938
C         32.87759        33.01026        -0.04677
C         31.66234        33.71829        -0.35594
C         32.88762        35.88309        -0.53739
C         31.66687        35.12011        -0.59890
C         32.87514        37.31461        -0.67767
C         31.65073        38.05510        -0.85230
C         32.81376        40.24125        -0.59387
C         31.61862        39.48915        -0.77070
C         32.81521        41.63536        -0.28064
C         31.55586        42.36495        -0.22578
C         32.75519        44.25813         0.65738
C         31.74789        43.72334         0.16366
C         35.62628        27.59332         2.20512
C         35.41065        28.86019         1.45429
C         34.16926        29.45119         0.75822
C         35.31125        31.69986         0.62616
C         34.11015        30.94180         0.55014
C         35.29348        33.10025         0.35598
C         34.10513        33.75948        -0.02524
C         35.33646        35.92711        -0.27574
C         34.11366        35.19204        -0.27464
C         35.32451        37.33993        -0.53190
C         34.11808        38.02869        -0.66769
C         35.35595        40.28665        -0.62941
C         34.08921        39.51357        -0.80058
C         35.31136        41.69022        -0.14128
C         34.06755        42.29308         0.08627
C         35.40945        44.39297         0.83933
C         34.07258        43.63081         0.73546
C         35.51400        45.85627         0.86530
C         38.16833        27.46022         2.09817
C         36.80277        27.14239         2.24362
C         38.31710        28.86071         2.11738
C         36.41026        29.86644         1.78133
C         37.84910        31.70665         1.05907
C         36.53648        31.09082         1.14072
C         37.84495        33.17039         0.89917
C         36.50902        33.90100         0.59143
C         37.80499        35.96226         0.08405
C         36.57187        35.27574         0.07147
C         37.85868        37.35664        -0.26729
C         36.63168        38.05369        -0.80695
C         37.78506        40.23529        -0.49051
C         36.62678        39.54008        -0.47903
C         37.76353        41.74288        -0.70723
C         36.55512        42.40315        -0.06333
C         37.83610        44.54135         0.01541
C         36.62414        43.76147         0.25304
C         37.85676        45.95583         0.18125
C         36.54925        46.43495         0.50070
C         39.95158        24.82182         0.17926
C         38.99623        25.39883         0.74711
C         40.34556        27.42756         0.83360
C         39.31462        26.61940         1.63771
C         40.31254        28.81447         0.76006
C         39.24164        29.58660         1.32528
C         40.29111        31.70895         0.61309
C         39.07716        30.99942         1.01918
C         40.29717        33.13955         0.49978
C         39.08339        33.87600         0.57310
C         40.29281        35.96140         0.17159
C         39.05159        35.26555         0.31214
C         40.30177        37.37889         0.00520
C         39.04941        38.05563        -0.23148
C         40.23275        40.26319        -0.10938
C         39.08314        39.49069        -0.70735
C         40.24202        41.73151        -0.30701
C         39.07483        42.43994        -0.40129
C         40.29553        44.61550        -0.26992
C         39.08160        43.88874        -0.27777
C         40.32658        46.02664        -0.05753
C         39.06047        46.69102         0.12871
C         40.30353        48.75604         0.32081
C         39.24538        48.08143         0.29699
C         42.38212        24.73645        -0.78925
C         41.22137        25.31579        -0.22216
C         42.62963        27.38628        -0.13018
C         41.40255        26.70836         0.13080
C         42.69625        28.81672        -0.01708
C         41.36907        29.53889        -0.04178
C         42.71181        31.67856         0.10973
C         41.47236        31.00331         0.30809
C         42.74995        33.10349         0.15633
C         41.52782        33.82652         0.28098
C         42.76580        35.95359         0.11066
C         41.52656        35.25262         0.19811
C         42.77100        37.38594         0.08546
C         41.53294        38.07237         0.02132
C         42.78377        40.29765         0.14791
C         41.51392        39.54276         0.13345
C         42.77217        41.66848         0.03992
C         41.55064        42.39907        -0.36138
C         42.86301        44.63546        -0.22890
C         41.58165        43.90728        -0.45044
C         42.82674        46.03938        -0.26775
C         41.57739        46.76053        -0.07382
C         42.90344        48.73103         0.12425
C         41.58484        48.19062         0.13138
C         43.46826        25.34530        -0.95764
C         45.03317        27.33236        -0.67294
C         43.80741        26.68350        -0.61557
C         45.19156        28.72985        -0.03462
C         43.89886        29.51123        -0.11001
C         45.17804        31.64799        -0.21478
C         43.94061        30.95077        -0.08216
C         45.21293        33.07840        -0.16094
C         43.99356        33.80169         0.02247
C         45.22742        35.94702         0.02751
C         43.99229        35.23042         0.06962
C         45.23360        37.38176         0.07671
C         44.01525        38.10275         0.11804
C         45.22724        40.26823         0.25494
C         44.02848        39.55377         0.20915
C         45.24575        41.68558         0.38868
C         43.96158        42.46554         0.49727
C         45.31857        44.51933         0.11225
C         44.06806        43.89510        -0.01413
C         45.42854        45.95052        -0.27971
C         44.11568        46.75229        -0.45995
C         43.96839        48.18262        -0.21151
C         47.42210        27.42395        -1.13852
C         46.28766        26.89227        -1.11687
C         47.65730        28.80617        -0.82204
C         46.40867        29.52374        -0.48676
C         47.69020        31.64266        -0.82130
C         46.40486        30.90129        -0.44682
C         47.71024        33.11271        -0.44130
C         46.45517        33.81230        -0.27620
C         47.67912        35.99105        -0.32412
C         46.43731        35.22068        -0.14618
C         47.70121        37.42027         0.05355
C         46.49429        38.09071         0.11661
C         47.71810        40.23022         0.63547
C         46.53086        39.58635        -0.04357
C         47.65288        41.58650         0.90679
C         46.44772        42.35574         0.63167
C         47.67222        44.46741         1.01314
C         46.47312        43.80101         0.62944
C         47.53162        45.87341         0.81186
C         46.68645        46.54024         0.18997
C         50.18306        28.97644        -0.96416
C         48.87053        29.44096        -0.76326
C         50.23857        31.63362        -0.55814
C         48.92203        30.90544        -0.26902
C         50.20968        33.05138        -0.46789
C         48.93964        33.76504        -0.40237
C         50.23370        35.98149        -0.16008
C         48.98295        35.24292        -0.44800
C         50.20045        37.38829         0.13684
C         48.96740        38.10980         0.25500
C         50.17936        40.12981         1.02866
C         48.96063        39.47680         0.68027
C         50.16126        41.49093         1.61706
C         48.78639        42.27919         1.53976
C         50.04758        44.21497         1.92116
C         48.79974        43.76265         1.51475
C         51.32701        29.47975        -0.86056
C         52.60738        31.74190        -0.76825
C         51.46800        30.91119        -0.74022
C         52.54280        32.99572        -0.65508
C         51.42397        33.82678        -0.48577
C         52.58155        36.06905        -0.10545
C         51.43290        35.24229        -0.27090
C         52.56527        37.29046         0.15766
C         51.43245        38.12333         0.34185
C         52.53420        40.32977         0.99036
C         51.41513        39.46564         0.76493
C         52.55501        41.50423         1.42112
C         51.43136        42.30991         1.73042
C         51.18337        43.64155         2.02309
O         48.30151        35.77210        -1.65197
O         35.18845        28.76258         0.01719
O         34.82110        43.72289         1.96016
O         37.04347        33.80697         1.95463
O         41.69618        43.09466        -1.67036
O         49.26870        41.64312         2.75393
O         37.33034        29.59647         2.80417
O         34.81376        40.05320        -2.00101
O         40.59148        39.92572         1.26469
O         44.91966        46.30926        -1.56516
O         48.77909        30.86418         1.16615
H         49.56079        30.40938         1.54468
O         47.80425        31.59836        -2.26668
H         47.14559        32.21381        -2.65071
O         40.91856        29.50140        -1.44163
H         41.56983        30.00074        -1.97825
O         39.30506        39.44638        -2.14097
H         38.53509        38.96379        -2.53143
O         46.73521        39.80005        -1.49261
H         47.48401        39.23200        -1.77592
O         43.72580        42.64572         1.95228
H         43.65710        41.75455         2.35803
O         45.42392        28.44063         1.38639
H         45.53341        29.29704         1.85182
O         37.58598        41.92329        -2.14590
H         36.75658        41.46983        -2.41099
O         36.78106        38.03689        -2.27630
H         36.04339        38.59390        -2.62981
O         39.98034        26.08019         2.78455
H         39.31914        25.62471         3.34644
