         620
 CSIRO Nanostructure Databank - Neutral Graphene Oxide Data Set
C         23.05353        27.38507         1.16643
C         23.04784        28.77201         1.27968
C         23.02721        31.70551         1.22150
C         23.01611        33.07509         1.03712
C         23.00138        35.97204         0.53833
C         23.00236        37.33907         0.34911
C         23.04519        40.21618        -0.24498
C         23.06159        41.57640        -0.47729
C         23.10797        44.49430        -0.86798
C         23.13787        45.85629        -1.10080
C         25.44395        24.53036         1.06258
C         24.29960        25.23343         0.92929
C         25.48667        27.37760         1.29989
C         24.26005        26.66758         1.16270
C         25.47272        28.79574         1.37048
C         24.25087        29.51278         1.35947
C         25.44809        31.70834         1.21607
C         24.24297        30.97999         1.30314
C         25.45330        33.11107         0.96059
C         24.21488        33.81229         0.88152
C         25.44224        35.95149         0.60475
C         24.21130        35.24319         0.67004
C         25.44164        37.37538         0.46537
C         24.21170        38.07762         0.31535
C         25.43092        40.24248         0.27906
C         24.21940        39.51015         0.12200
C         25.41100        41.65638         0.12936
C         24.24417        42.33958        -0.28888
C         25.50308        44.49987        -0.37161
C         24.27494        43.77815        -0.50140
C         25.54309        45.90750        -0.62084
C         24.34715        46.58918        -0.98321
C         25.56998        48.69063        -1.08185
C         24.39075        47.99299        -1.21144
C         28.01513        23.06947         1.42289
C         27.97410        24.44529         1.36879
C         26.67882        25.17907         1.64478
C         27.94828        27.32089         1.16439
C         26.72872        26.65505         1.33098
C         27.99733        28.75544         1.14949
C         26.76340        29.49034         1.48564
C         27.94785        31.71158         0.95513
C         26.73914        31.02773         1.40215
C         27.93835        33.09822         0.73717
C         26.69392        33.82385         0.80237
C         27.92032        35.95516         0.55834
C         26.68769        35.23551         0.65895
C         27.91705        37.38282         0.50470
C         26.67935        38.09796         0.47460
C         27.91106        40.21835         0.53385
C         26.67699        39.52498         0.46925
C         27.92493        41.67726         0.68663
C         26.60825        42.44122         0.46060
C         27.92741        44.53788         0.12065
C         26.69469        43.84583         0.05224
C         27.97514        45.94411        -0.15087
C         26.76818        46.63364        -0.49053
C         28.02452        48.76644        -0.59414
C         26.78551        48.04027        -0.72184
C         28.06829        50.18197        -0.76701
C         30.44116        22.95831         1.09817
C         29.22428        22.33248         1.22276
C         30.50171        24.44704         1.33876
C         29.19216        25.18724         1.14623
C         30.40137        27.30533         0.61874
C         29.17833        26.56534         1.02551
C         30.43186        28.78238         0.71392
C         29.20187        29.45587         0.91823
C         30.44466        31.66177         0.47224
C         29.14378        30.91603         0.67136
C         30.43037        33.13408         0.58942
C         29.17771        33.82056         0.56955
C         30.39514        35.96255         0.48286
C         29.16185        35.24378         0.53796
C         30.39429        37.38842         0.45063
C         29.15231        38.09792         0.46349
C         30.38868        40.25108         0.46595
C         29.14770        39.52494         0.47651
C         30.39349        41.68375         0.46975
C         29.17729        42.41636         0.49589
C         30.39958        44.54310         0.34444
C         29.15939        43.82323         0.35404
C         30.42587        45.96090         0.16436
C         29.21216        46.65809        -0.09039
C         30.47145        48.80955        -0.20885
C         29.23164        48.08020        -0.30023
C         30.47802        50.22985        -0.38153
C         29.24204        50.88390        -0.65736
C         32.92138        20.13713         0.76271
C         31.73813        20.82457         0.96631
C         32.89671        22.94180         0.64066
C         31.69012        22.23572         0.90350
C         32.87645        24.40412         0.58439
C         31.72114        25.10402         0.74814
C         32.97279        27.30900         0.47850
C         31.68973        26.56187         0.47190
C         32.92243        28.76749         0.45351
C         31.67564        29.46624         0.54950
C         32.90213        31.60957         0.58561
C         31.70905        30.90800         0.59132
C         32.93420        33.08260         0.89560
C         31.64059        33.82948         0.61287
C         32.85840        35.98487         0.47324
C         31.63716        35.25486         0.52284
C         32.86910        37.39432         0.38974
C         31.62522        38.10840         0.40924
C         32.85672        40.25286         0.30701
C         31.61953        39.53606         0.40484
C         32.86826        41.67261         0.37209
C         31.62901        42.40474         0.48346
C         32.85721        44.56739         0.67416
C         31.60824        43.81535         0.51673
C         32.86574        46.01731         0.46561
C         31.68101        46.68923         0.21350
C         32.92548        48.85819         0.11268
C         31.69207        48.13165         0.04701
C         32.93357        50.28025        -0.05032
C         31.70313        50.96283        -0.27902
C         32.89478        53.09214        -0.28806
C         31.72643        52.38763        -0.38802
C         35.37541        18.69215         0.10029
C         35.34138        20.10264         0.11115
C         34.11247        20.81817         0.41212
C         35.27135        22.94019        -0.19621
C         34.08515        22.23249         0.34618
C         35.28451        24.45164        -0.19983
C         34.20625        25.11755         0.63775
C         35.49277        27.31960         0.44969
C         34.15025        26.61805         0.46274
C         35.37962        28.79457         0.11656
C         34.13588        29.48547         0.30222
C         35.27343        31.65334        -0.07685
C         34.13375        30.92598         0.32260
C         35.27157        33.10214        -0.06269
C         34.14171        33.77643         0.32696
C         35.40268        35.99405         0.34831
C         34.13076        35.24447         0.53414
C         35.34807        37.44920         0.15724
C         34.10705        38.12420         0.24025
C         35.30226        40.26548        -0.09084
C         34.09103        39.55056         0.15014
C         35.29466        41.68585        -0.09987
C         34.09237        42.36029         0.20751
C         35.30780        44.55310        -0.11850
C         34.15438        43.79936         0.45182
C         35.33345        46.03569         0.03546
C         34.17281        46.73291         0.73475
C         35.38618        48.87708         0.32755
C         34.16502        48.18987         0.33899
C         35.38432        50.29692         0.24979
C         34.16866        51.00477         0.05804
C         35.34736        53.20639        -0.05863
C         34.15509        52.44789        -0.07780
C         35.38868        54.61343        -0.27496
C         37.77852        18.66591        -0.31615
C         36.55169        17.99087        -0.10263
C         37.75252        20.07850        -0.38565
C         36.55244        20.81526        -0.17154
C         37.76825        22.97873        -0.52550
C         36.55777        22.24057        -0.30488
C         37.75084        24.45132        -0.54690
C         36.57420        25.14829        -0.33125
C         37.79937        27.36050        -0.53515
C         36.46853        26.64455        -0.52660
C         37.77744        28.77434        -0.54071
C         36.51692        29.46641        -0.31763
C         37.77744        31.69137        -0.74575
C         36.43191        30.91228        -0.57139
C         37.78602        33.12289        -0.50426
C         36.47656        33.86456        -0.62146
C         37.79570        35.96203        -0.15992
C         36.60383        35.27620        -0.10373
C         37.81045        37.42312        -0.08110
C         36.55830        38.13357        -0.05261
C         37.74520        40.22984        -0.50628
C         36.55167        39.55448        -0.21938
C         37.66715        41.66111        -0.85822
C         36.50469        42.43217        -0.39203
C         37.76115        44.57598        -0.69793
C         36.55704        43.81940        -0.39340
C         37.76992        46.03900        -0.45825
C         36.64387        46.70613        -0.01708
C         37.96912        48.84888         0.29801
C         36.67528        48.08539         0.61623
C         37.95768        50.35138         0.33159
C         36.63731        51.05366         0.47960
C         37.88576        53.26404        -0.04285
C         36.62472        52.55177         0.27037
C         37.84497        54.66692        -0.15931
C         36.56949        55.31910        -0.23894
C         40.27915        15.81528        -0.12059
C         39.09538        16.49984        -0.20432
C         40.24039        18.65470        -0.22009
C         39.04803        17.94134        -0.29632
C         40.29922        20.06889        -0.59604
C         38.96841        20.82054        -0.73163
C         40.26798        22.96282        -0.94066
C         38.97692        22.28584        -0.69015
C         40.27049        24.49948        -0.91326
C         38.98674        25.19693        -0.68428
C         40.28432        27.30695        -0.81679
C         38.99060        26.59932        -0.65613
C         40.27618        28.81486        -0.80535
C         38.99148        29.52983        -0.65948
C         40.26269        31.65248        -0.54457
C         39.02286        30.92625        -0.61784
C         40.25481        33.07513        -0.51085
C         39.00722        33.80107        -0.44389
C         40.25650        35.92225        -0.36465
C         39.03798        35.23894        -0.36122
C         40.27301        37.37556        -0.09651
C         39.00565        38.13254        -0.15760
C         40.20933        40.25379        -0.67623
C         39.01504        39.55837        -0.43419
C         40.19846        41.62394        -1.26827
C         38.91131        42.41863        -1.25504
C         40.13583        44.62814        -1.48446
C         38.91739        43.89318        -1.06546
C         40.13739        46.13259        -1.34018
C         38.99286        46.80630        -0.70520
C         40.29348        48.93754        -0.62819
C         39.08394        48.16375        -0.40852
C         40.26965        50.38144        -0.52163
C         39.12444        51.09882        -0.19875
C         40.30979        53.27294        -0.41900
C         39.10778        52.54634        -0.21975
C         40.30910        54.70889        -0.34941
C         39.07853        55.41685        -0.22422
C         40.31312        57.51427        -0.10720
C         39.11247        56.83318        -0.13306
C         42.76183        15.86095        -0.00708
C         41.53078        16.50139         0.00758
C         42.81384        18.73851         0.02038
C         41.48665        17.96378         0.13459
C         42.76298        20.15608        -0.36966
C         41.56548        20.83452        -0.48076
C         42.74057        22.99905        -0.50002
C         41.54500        22.26448        -0.67645
C         42.69732        24.42957        -0.34096
C         41.52969        25.17673        -0.52667
C         42.67402        27.35634        -0.11027
C         41.52952        26.61265        -0.42808
C         42.68248        28.79606        -0.15651
C         41.52303        29.51966        -0.45866
C         42.73212        31.68167        -0.49604
C         41.50582        30.95428        -0.46735
C         42.72876        33.09306        -0.64270
C         41.48478        33.79436        -0.56253
C         42.72278        35.92457        -0.68804
C         41.48877        35.21716        -0.49746
C         42.72511        37.33654        -0.75076
C         41.57931        38.12010        -0.23001
C         42.66776        40.22723        -1.08742
C         41.55325        39.66543        -0.24267
C         42.78035        41.71881        -1.16706
C         41.47930        42.37827        -1.52452
C         42.75128        44.64939        -1.67693
C         41.43476        43.88331        -1.71484
C         42.71161        46.05254        -1.13897
C         41.47085        46.86773        -1.31073
C         42.78713        48.91976        -0.81342
C         41.51111        48.26920        -0.86835
C         42.81415        50.38379        -0.94737
C         41.49265        51.13236        -0.86261
C         42.78512        53.23277        -0.58705
C         41.55489        52.57803        -0.59620
C         42.82468        54.72672        -0.76286
C         41.53490        55.41936        -0.39567
C         42.80467        57.50317        -0.10823
C         41.54503        56.81812        -0.23067
C         43.98146        16.57840        -0.10128
C         45.28764        18.70468        -0.36264
C         44.04148        17.96174        -0.18842
C         45.28683        20.10833        -0.48661
C         44.02031        20.84437        -0.84054
C         45.22586        22.96370        -0.28720
C         44.01704        22.30693        -0.46279
C         45.23210        24.37216         0.16397
C         43.89938        25.10939         0.18093
C         45.22097        27.33370         0.34795
C         43.89377        26.61282         0.29812
C         45.25010        28.83514         0.20980
C         43.92452        29.57713         0.07608
C         45.19563        31.66275        -0.46694
C         43.97743        30.98758        -0.36617
C         45.21765        33.08318        -0.78850
C         43.95895        33.80073        -0.85176
C         45.12832        35.94566        -1.39276
C         43.92632        35.20648        -0.99124
C         45.11371        37.41476        -1.41806
C         43.86017        38.02775        -1.25644
C         45.52335        40.44246        -1.85908
C         43.60900        39.41265        -1.60827
C         45.41461        41.82931        -1.50414
C         44.07428        42.46468        -1.35300
C         45.31130        44.66681        -1.14954
C         44.06948        43.94669        -1.58879
C         45.29518        46.05286        -0.94142
C         43.99917        46.75454        -0.79367
C         45.25331        48.92367        -0.63091
C         43.99976        48.23025        -0.76806
C         45.24891        50.35665        -0.46827
C         44.05194        51.10217        -0.63081
C         45.24213        53.20909        -0.18581
C         44.03086        52.51122        -0.51509
C         45.23332        54.63886         0.00193
C         44.05013        55.39625        -0.19545
C         43.99036        56.80356        -0.01769
C         47.72579        18.72287        -0.33477
C         46.53509        18.03013        -0.28945
C         47.74611        20.13826        -0.39042
C         46.50646        20.83491        -0.44613
C         47.70641        22.99341        -0.27750
C         46.49449        22.27495        -0.37484
C         47.70570        24.43569        -0.13287
C         46.49822        25.13588         0.09773
C         47.64638        27.28434        -0.09913
C         46.47728        26.57262         0.11331
C         47.63564        28.69583        -0.52821
C         46.44099        29.51084        -0.29764
C         47.66022        31.61232        -0.71193
C         46.45369        30.91762        -0.46301
C         47.70044        33.08948        -0.42682
C         46.43358        33.76471        -0.88261
C         47.76320        35.90767        -1.14881
C         46.50888        35.15306        -1.31692
C         47.72778        37.38157        -1.11978
C         46.41865        38.14458        -1.30463
C         47.78846        40.29256        -1.02649
C         46.53142        39.62299        -1.45462
C         47.81882        41.79161        -1.00758
C         46.55546        42.52994        -1.18348
C         47.76968        44.66141        -0.89918
C         46.53845        43.96486        -1.04922
C         47.74048        46.06519        -0.79732
C         46.50916        46.76689        -0.76882
C         47.69416        48.90070        -0.27170
C         46.47766        48.21076        -0.58117
C         47.66323        50.30348         0.01227
C         46.45415        51.04151        -0.14287
C         47.63416        53.13030         0.45148
C         46.43984        52.46652         0.03336
C         47.59770        54.54153         0.62822
C         46.44843        55.26379         0.41418
C         50.23270        20.21165        -0.46524
C         48.98496        20.87918        -0.39667
C         50.20257        23.02500        -0.32354
C         48.96654        22.30145        -0.33684
C         50.19306        24.46422        -0.24216
C         48.95852        25.13296        -0.12770
C         50.23770        27.36410        -0.13975
C         48.93453        26.59205         0.02768
C         50.22948        28.77981        -0.53425
C         48.94382        29.40867        -0.84691
C         50.21861        31.64984        -0.96581
C         48.90376        30.89846        -1.00206
C         50.18877        33.11779        -0.77861
C         48.98378        33.79996        -0.80659
C         50.22570        35.96135        -0.89155
C         48.97410        35.23728        -0.93402
C         50.20518        37.41194        -1.00800
C         49.03374        38.10123        -1.18528
C         50.30625        40.35486        -1.51104
C         48.98820        39.56881        -1.59237
C         50.32410        41.83021        -1.23654
C         49.08771        42.54267        -1.11477
C         50.26889        44.64197        -0.69815
C         49.04376        43.93328        -0.93926
C         50.24102        46.03519        -0.43950
C         49.03066        46.83841        -0.85383
C         50.09250        48.82487         0.27755
C         48.93269        48.19885        -0.21064
C         50.04826        50.21501         0.64818
C         48.85202        50.96591         0.44432
C         50.00805        52.98199         1.20297
C         48.82957        52.37224         0.70062
C         51.41920        20.91269        -0.47067
C         52.69279        23.05416        -0.38818
C         51.43795        22.32761        -0.39476
C         52.69104        24.47373        -0.35847
C         51.44505        25.19147        -0.29638
C         52.69410        27.33495        -0.39606
C         51.47450        26.59966        -0.32713
C         52.68780        28.76390        -0.42442
C         51.44157        29.48493        -0.57046
C         52.67257        31.63882        -0.62187
C         51.47102        30.91422        -0.71581
C         52.64757        33.07604        -0.69062
C         51.44603        33.81129        -0.74416
C         52.70442        35.95411        -0.68194
C         51.44738        35.25584        -0.77973
C         52.76393        37.41786        -1.02619
C         51.47656        38.17772        -0.69422
C         52.87155        40.28653        -1.09853
C         51.56668        39.56799        -1.30474
C         52.83941        41.81655        -0.99983
C         51.52558        42.51312        -0.97215
C         52.68464        44.58347        -0.19332
C         51.50063        43.90682        -0.61370
C         52.62267        45.96508         0.18666
C         51.38838        46.69611         0.04730
C         52.44921        48.70872         1.01981
C         51.32575        48.08467         0.42253
C         52.39681        50.08281         1.42442
C         51.20196        50.85338         1.18020
C         51.14669        52.24492         1.45114
C         55.13343        23.06744        -0.38084
C         53.93729        22.37829        -0.41244
C         55.16753        24.48244        -0.34055
C         53.92969        25.19111        -0.35502
C         55.15444        27.34205        -0.27184
C         53.93241        26.62335        -0.35554
C         55.14580        28.77145        -0.24426
C         53.91185        29.48441        -0.36532
C         55.14463        31.60559        -0.29471
C         53.92270        30.92081        -0.43336
C         55.20891        33.06826        -0.48473
C         53.91983        33.81509        -0.70275
C         55.11066        35.96982        -0.11007
C         53.90079        35.27636        -0.49274
C         55.08265        37.36415         0.03331
C         53.96265        38.14110        -0.42944
C         55.27312        40.25688        -0.31269
C         54.00975        39.52227        -0.53784
C         55.29453        41.78521        -0.31110
C         54.00907        42.51087        -0.42634
C         55.16884        44.55505         0.29216
C         53.92394        43.84200        -0.07652
C         55.07732        45.99727         0.70597
C         53.75372        46.64206         0.72133
C         54.78917        48.57437         1.86825
C         53.66565        47.96528         1.20458
C         54.67719        49.91520         2.28502
C         53.52363        50.65131         2.05276
C         57.66912        24.53580        -0.20875
C         56.41385        25.20832        -0.25910
C         57.61908        27.35231        -0.05549
C         56.39571        26.62805        -0.19844
C         57.61049        28.77863         0.03032
C         56.36988        29.48739        -0.08435
C         57.58080        31.63380         0.18252
C         56.36153        30.90905        -0.06021
C         57.55971        33.06878         0.31278
C         56.37703        33.80793         0.03208
C         57.47119        35.88289         0.71304
C         56.32351        35.21252         0.21576
C         57.37669        37.29256         1.25879
C         56.18441        38.07926         0.72010
C         57.60680        40.23211         0.74331
C         56.31401        39.56383         0.50615
C         57.75421        41.70823         0.41280
C         56.43311        42.44543         0.36898
C         57.47589        44.46912         1.32360
C         56.36182        43.77468         0.70070
C         57.38284        45.81938         1.67746
C         56.17308        46.56614         1.51187
C         57.04967        48.33703         2.96983
C         56.00111        47.82520         2.09928
C         58.85049        25.22973        -0.07813
C         60.06156        27.37964         0.17652
C         58.85336        26.64883         0.01458
C         60.04507        28.75248         0.28495
C         58.82693        29.48677         0.21978
C         59.97594        31.65956         0.66943
C         58.79784        30.92694         0.35152
C         59.94749        33.02344         0.84696
C         58.74563        33.76348         0.68413
C         59.85738        35.91602         1.27028
C         58.68911        35.18557         0.90324
C         59.86236        37.30597         1.33882
C         58.68962        38.05649         1.19824
C         59.93951        40.22224         1.46401
C         58.72202        39.49685         1.13260
C         59.93912        41.57705         1.61211
C         58.78211        42.37239         1.29571
C         59.65075        44.33905         2.53196
C         58.65692        43.70059         1.67758
C         59.61935        45.65594         2.80410
C         58.60645        46.56387         2.16858
C         58.24889        47.72731         3.05829
O         40.38641        28.05843        -2.07586
O         39.67773        20.29307        -1.91466
O         42.10167        50.81235        -2.16314
O         51.10167        39.83316        -2.64597
O         45.81230        35.40584        -2.57395
O         26.88630        30.32779         2.69431
O         47.84541        40.94245         0.25431
O         40.31090        23.76509        -2.17963
O         44.45473        39.93030        -2.59273
O         43.47820        42.25211         0.00032
O         27.12242        42.17328         1.80886
O         46.93736        37.83409         0.07364
O         55.68346        39.02529         1.74340
O         44.50047        26.98996         1.57014
O         49.57261        31.30739        -2.25914
O         38.39666        49.57505         1.50726
O         40.58703        44.23811        -2.83045
O         36.92573        31.31231        -1.89484
O         53.18769        41.12481        -2.24424
O         30.87194        26.84979        -0.72693
O         49.66308        27.12118         1.21420
O         41.12865        37.64846         1.08985
O         54.80234        33.47057        -1.85109
O         34.95760        35.59389         1.73190
O         40.84096        41.64948        -2.60816
O         48.18246        28.74570        -1.92099
O         34.87963        23.74714        -1.39852
O         29.66380        31.21785        -0.69016
O         43.14781        46.12363         0.25749
O         33.72458        44.14664         1.79727
O         40.70171        46.74997        -2.53862
O         55.73956        40.99091        -1.48346
O         42.16361        18.49645         1.32179
O         43.56452        44.44401        -2.87228
O         55.50717        45.62100        -0.66485
O         44.60322        29.45746         1.37126
O         34.91734        45.43933        -1.24009
O         36.60414        51.94789         1.63518
O         37.97705        41.94759        -2.27760
O         44.43558        24.50250         1.39724
O         30.74151        24.57696         2.80500
H         29.94988        24.20852         3.25545
O         57.12652        37.10110         2.69334
H         56.66064        37.91592         2.99688
O         34.40258        46.65517         2.16163
H         33.72330        47.19426         2.61535
O         36.20176        33.99113        -2.06183
H         36.31186        33.08362        -2.44009
O         49.24221        47.11320        -2.29340
H         50.08643        47.60577        -2.37787
O         48.64070        39.50422        -3.01091
H         49.48139        39.32685        -3.49793
O         59.25363        47.13939         0.98020
H         58.56024        47.60781         0.46857
O         36.09036        27.22213         1.76945
H         35.43182        27.51815         2.43095
O         43.95587        20.78456        -2.31576
H         43.13959        21.25465        -2.59356
O         52.89966        37.47168        -2.47065
H         53.67318        36.93026        -2.73339
O         33.10416        33.15657         2.36116
H         33.55962        34.00339         2.56841
O         35.87729        26.80982        -1.84750
H         36.45017        26.35984        -2.50355
O         36.68706        47.81896         2.03991
H         37.20084        48.55026         2.45983
O         47.70848        33.18148         1.06138
H         46.86280        32.79996         1.38419
O         51.45393        38.42295         0.73797
H         51.21311        37.59049         1.19635
O         41.72986        40.13121         1.11790
H         41.40973        39.40683         1.70707
O         58.29311        41.77133        -0.95223
H         57.56643        41.48219        -1.55675
O         34.66054        24.87872         2.01714
H         33.92350        25.10782         2.62278
O         26.51640        25.09201         3.11231
H         25.71554        25.60923         3.34529
O         42.94893        54.91276        -2.23454
H         42.25685        54.35946        -2.65688
H         22.10220        26.84315         1.06609
H         22.07979        29.28924         1.27221
H         22.06513        31.18504         1.31315
H         22.04583        33.58751         1.00159
H         22.03655        35.44970         0.57662
H         22.03860        37.85573         0.25049
H         22.10225        39.67274        -0.39062
H         22.13268        42.06494        -0.79900
H         22.15010        43.96706        -0.96822
H         22.21616        46.38642        -1.38033
H         25.44836        23.44892         0.86321
H         23.37337        24.73799         0.60075
H         25.56050        49.77219        -1.26919
H         23.46615        48.51817        -1.49094
H         27.09251        22.49798         1.59366
H         27.14734        50.73724        -0.98584
H         29.14530        21.23820         1.15791
H         29.21327        51.97186        -0.79782
H         32.91205        19.04329         0.85182
H         30.83088        20.25268         1.20265
H         32.85285        54.18573        -0.36938
H         30.79349        52.94348        -0.54504
H         34.45542        18.11896         0.27239
H         34.45760        55.16967        -0.44588
H         36.52024        16.89435        -0.07111
H         36.53120        56.40865        -0.36849
H         40.28103        14.71564        -0.13864
H         38.16212        15.92666        -0.27999
H         40.32448        58.60735         0.01067
H         38.17715        57.40044        -0.03642
H         42.79499        14.76224        -0.03804
H         42.80087        58.59497         0.02133
H         44.90099        15.98512        -0.19740
H         44.90589        57.36458         0.21648
H         48.66384        18.15500        -0.28830
H         46.56427        16.93665        -0.19755
H         48.50261        55.08022         0.93799
H         46.47926        56.35098         0.56277
H         50.27164        19.11685        -0.52914
H         50.02554        54.05814         1.41823
H         52.35750        20.34780        -0.53681
H         52.02821        52.76439         1.84857
H         56.06761        22.49114        -0.38485
H         53.97249        21.28183        -0.44054
H         55.52282        50.41016         2.77980
H         53.50145        51.69736         2.38443
H         57.70688        23.44015        -0.26768
H         56.84375        49.22031         3.59052
H         59.80695        24.68914        -0.03478
H         61.01486        26.83369         0.22194
H         60.99899        29.28083         0.41198
H         60.92948        31.13400         0.80782
H         60.87993        33.53475         1.11821
H         60.81022        35.39063         1.41085
H         60.83189        37.80654         1.46411
H         60.85059        39.66558         1.71656
H         60.84730        42.06751         1.98914
H         60.43408        43.71510         2.98450
H         60.38276        46.10912         3.45418
H         59.03010        48.13360         3.71818
