         266
 CSIRO Nanostructure Databank - Neutral Graphene Oxide Data Set
C        -11.15401         0.31769         0.14925
C         -9.97089         1.11575         0.48013
C         -8.91452         0.46017         1.25512
C         -7.66060         1.21692         1.62560
C         -6.29368         0.54173         1.77039
C         -5.00070         1.36076         1.80379
C         -3.81059         0.85335         1.01646
C         -2.48058         1.51236         1.28946
C         -1.17427         0.79653         0.86551
C         -0.04534         1.73499         0.39615
C          1.21202         1.10136        -0.13349
C          2.54238         1.82655        -0.02490
C          3.79030         0.99571         0.09234
C          5.05836         1.62689         0.60759
C          6.34334         0.91382         0.29296
C          7.63685         1.59978         0.60813
C          8.89614         0.82158         0.57089
C         10.06385         1.53564        -0.10853
C         11.34068         0.72683        -0.02387
C         -9.86818         2.41562         0.08673
C         -8.54775         3.14960         0.11883
C         -7.61915         2.68561         1.25521
C         -6.35860         3.48084         1.43725
C         -5.06210         2.87038         1.94562
C         -3.77810         3.78819         2.03010
C         -2.48469         2.96951         1.66618
C         -1.19415         3.75333         1.58077
C          0.01587         3.16014         0.90358
C          1.30556         3.93926         0.90865
C          2.58823         3.29395         0.41940
C          3.89729         3.95430         0.73361
C          5.12940         3.09273         0.87073
C          6.47800         3.77674         0.89321
C          7.65589         3.10018         0.15085
C          9.01274         3.72025         0.48569
C         10.13156         2.97325         0.38034
C         -8.72964         4.66169         0.24039
C         -7.95783         5.56292        -0.35319
C         -5.93762         4.43781         0.31102
C         -5.10119         5.65291         0.64877
C         -3.82759         5.18710         1.35953
C         -2.53315         5.91031         1.12399
C         -1.23286         5.24623         1.51367
C          0.02587         6.11830         1.42416
C          1.34520         5.31251         1.56249
C          2.64770         6.07117         1.55167
C          3.97522         5.23006         1.57753
C          5.24712         6.04056         1.26091
C          6.52981         5.25532         1.11176
C          7.75890         5.95472         0.65958
C          9.06831         5.19849         0.86357
C         -7.50368         6.50054        -1.16547
C         -6.29220         7.41291        -1.02998
C         -5.10945         6.91149        -0.16246
C         -3.74682         7.43912        -0.60026
C         -2.47422         6.87107        -0.04842
C         -1.14275         7.48548        -0.42640
C          0.11822         7.01425         0.22006
C          1.34618         7.89082         0.19545
C          2.60465         7.48287         0.94359
C          3.90733         8.15090         0.51604
C          5.22766         7.45986         0.79030
C          6.51225         8.14818         0.27669
C          7.72208         7.23099         0.23410
C         -5.84773         7.88739        -2.39320
C         -4.70802         8.56420        -2.56021
C         -3.72591         8.74335        -1.41616
C         -2.34165         9.08327        -2.01826
C         -1.10861         8.75552        -1.19635
C          0.07730         9.36891        -1.42852
C          1.40259         8.72966        -1.07227
C          2.62907         9.57011        -1.23529
C          3.88490         9.18185        -0.62248
C          5.12429         9.35890        -1.41688
C          6.30207         8.83501        -1.05250
C        -11.33175        -0.95807         0.54307
C        -10.38394        -1.64558         1.49238
C         -9.18770        -0.77798         1.75786
C         -7.27855        -1.82416         1.58199
C         -6.10478        -0.92700         1.47694
C         -5.01822        -1.34735         0.54707
C         -3.89992        -0.40905         0.21266
C         -2.64421        -1.02674        -0.37388
C         -1.34426        -0.31763        -0.16888
C         -0.08424        -1.10999        -0.41424
C          1.23481        -0.40149        -0.35438
C          2.45987        -1.20579        -0.10495
C          3.73192        -0.50675         0.22008
C          5.02194        -1.27461         0.17140
C          6.33849        -0.56006         0.07847
C          7.55248        -1.38817         0.40922
C          8.87452        -0.68782         0.59308
C         10.14252        -1.43967         0.34992
C         11.36036        -0.61280         0.08023
C        -10.01336        -3.06912         1.06411
C         -8.79683        -3.63540         0.79758
C         -7.52175        -2.89007         0.77709
C         -6.48316        -3.35988        -0.17117
C         -5.18850        -2.57671        -0.29591
C         -3.93144        -3.25630        -0.75275
C         -2.57582        -2.52230        -0.81312
C         -1.41666        -3.31585        -0.19602
C         -0.08045        -2.57139         0.01376
C          1.14662        -3.24657        -0.58568
C          2.42582        -2.56404        -0.23263
C          3.67499        -3.33652        -0.48382
C          4.99937        -2.65802        -0.40418
C          6.29223        -3.45055        -0.49949
C          7.53286        -2.85174         0.08708
C          8.79177        -3.63998        -0.05634
C         10.13518        -2.90104        -0.10738
C         -8.68444        -5.07613         0.53101
C         -7.58942        -5.65388        -0.03211
C         -6.52322        -4.79922        -0.61386
C         -5.23989        -5.43393        -1.10591
C         -3.97978        -4.78131        -0.55615
C         -2.68638        -5.51660        -0.83597
C         -1.43216        -4.79868        -0.43628
C         -0.15572        -5.47643        -0.86211
C          1.13388        -4.70451        -0.89579
C          2.33218        -5.51104        -0.49392
C          3.66240        -4.82738        -0.33327
C          4.93356        -5.61359        -0.41099
C          6.25156        -4.93509        -0.67041
C          7.50737        -5.80477        -0.56867
C          8.74322        -4.98379        -0.22328
C         -7.41335        -7.16215        -0.06577
C         -6.54570        -7.67353        -1.26716
C         -5.21887        -6.90141        -1.38843
C         -3.89126        -7.63608        -1.34509
C         -2.67157        -6.87310        -0.96758
C         -1.44789        -7.66238        -0.46884
C         -0.15613        -6.95502        -1.06861
C          1.17316        -7.84955        -1.12231
C          2.29221        -6.99577        -0.46135
C          3.58474        -7.73822        -0.18765
C          4.93823        -7.13088        -0.71950
C          6.10913        -7.80413         0.01641
C          7.26746        -7.10685         0.18607
C         -6.36013        -9.16485        -1.08276
C         -5.18875        -9.81384        -1.02425
C         -3.87938        -9.13860        -1.19559
C         -2.64042        -9.83326        -0.79527
C         -1.43604        -9.16926        -0.67895
C         -0.21234        -9.85152        -0.39922
C          1.04255        -9.20154        -0.38969
C          2.21766        -9.87732        -0.03801
C          3.52511        -9.22154         0.06931
C          4.82257        -9.93377         0.11814
C          5.98702        -9.24424         0.23633
O          5.36964         7.14819         2.21884
O          6.80477         4.30986         2.20384
O         -5.55865         6.90319         1.23292
O         -2.10205        -0.09911        -1.36824
O         -3.37201         6.26437         2.23695
O          8.34697         1.38179         1.82862
O          0.37208         4.04373        -0.20944
O         -4.95027         1.99225         3.10074
O          7.26635        -2.36862         1.45029
O         -0.40395        -6.14468        -2.16748
O         -8.22845        -1.44229         2.54753
O          4.34354        -1.05491         1.44059
O          0.60192        -0.79396        -1.63167
O         -5.23743        -5.90466        -2.47161
O         -7.03498        -3.73504        -1.47262
O         -1.09113         4.54858         2.79608
O         -4.23470         0.86349        -0.39759
O          1.43837        -8.10111        -2.40613
O          3.29764         4.13620        -0.56331
O         -3.06981         6.32673        -1.28562
O         -0.27239         6.44853        -1.04159
O          4.98226         2.12311         1.96663
O         -1.36443        -7.45018         0.87416
O          3.56700        -8.16067         1.16005
O          5.11104        -7.30562        -2.06226
O          4.37341        -5.26356         0.87945
O          1.96996         5.70728         2.80085
O          4.30116        -2.77098        -1.68223
O          6.41413         0.34194        -1.05697
O         -5.75011         3.95959        -0.80025
O          3.96986         9.54725         0.82965
O         -3.70184        -8.48279        -2.51766
O          0.23485         1.70716        -1.02318
O         -4.90486        -1.61520         1.99922
O          1.16634        -3.72994        -1.96646
O         -1.60940        -4.23139         0.92307
O          1.67945         8.47089         1.47230
O         -7.48035         3.69204         2.31644
O         -2.34817         1.90748         2.68252
O          6.38921        -4.05506        -1.81804
O         -7.12529         0.86512         2.91675
O          7.45661         3.11895        -1.21277
O         -4.79443        -2.55934        -1.69640
O          9.64516        -1.24292         1.70759
O          1.90919        -6.25661         0.71220
O          3.37492         1.53394        -1.18706
O         -4.18646        -4.94285         0.88540
H         -3.31680        -4.80437         1.33882
O          4.16364         4.75455         2.91110
H          4.40860         5.51537         3.47973
O          0.16961        -2.52605         1.43439
H         -0.18911        -3.34951         1.84026
O         -8.67863        -7.80940        -0.13756
H         -8.95864        -7.76455        -1.07897
O         -7.32707        -7.46174        -2.45574
H         -6.87911        -6.75267        -2.97690
O          6.82601         9.19241         1.22410
H          6.68522         8.81847         2.12199
O          9.41257         5.30345         2.25013
H          8.69045         4.87068         2.76128
O         -0.11402         7.00978         2.53464
H         -0.14521         6.47117         3.35515
O         -3.64549         4.09865         3.41358
H         -3.61920         3.25043         3.90997
O          7.76570        -6.28617        -1.92049
H          6.90922        -6.66082        -2.26331
O          9.72709         1.57611        -1.52163
H          8.91364         2.14552        -1.63808
O         10.58180        -2.89880        -1.46708
H         10.41887        -3.78076        -1.86072
O         -2.16892         8.28945        -3.20633
H         -2.25078         7.34306        -2.94057
O         -6.73984         8.61743        -0.33587
H         -6.89784         8.35871         0.60119
O         -0.67846         0.11559         2.03490
H         -0.98339         0.60925         2.83287
O          1.70766         7.76893        -2.15160
H          1.11000         7.93696        -2.91305
O         -2.20274        -2.53414        -2.20011
H         -2.85032        -1.99258        -2.70188
O        -11.09442        -1.80196         2.75686
H        -10.42862        -2.05322         3.43268
O         -7.90217         2.78950        -1.11627
H         -8.41806         3.15725        -1.86228
O         -4.14268         9.82096        -0.56507
H         -5.10354         9.68616        -0.36627
H         12.32235        -1.14680         0.03709
H         12.28612         1.26693        -0.18837
H         11.11759         3.42627         0.57163
H          9.88038         5.70431         0.28210
H          8.66238         7.72225        -0.06275
H          7.18242         8.97622        -1.69647
H          5.02430         9.88583        -2.37796
H          2.69329        10.13941        -2.17898
H          0.10825        10.26373        -2.07041
H         -2.33372        10.15679        -2.32424
H         -4.43820         8.96488        -3.54822
H         -6.54480         7.75825        -3.23520
H         -8.13338         6.73010        -2.04767
H         -9.45255         5.00332         1.00312
H        -10.68710         2.86785        -0.49373
H        -11.90626         0.79671        -0.49598
H        -12.23439        -1.50862         0.24028
H        -10.88667        -3.74195         1.03247
H         -9.50539        -5.72593         0.87184
H         -6.91967        -7.47737         0.89481
H         -7.29514        -9.73429        -0.97091
H         -5.17336       -10.90232        -0.85910
H         -2.67727       -10.93049        -0.68946
H         -0.25450       -10.92828        -0.15654
H          2.17094       -10.96484         0.14699
H          4.81528       -11.03134         0.18421
H          6.92160        -9.80334         0.39973
H          8.14227        -7.61389         0.62556
H          9.69760        -5.52923        -0.32192
H         10.87935        -3.47042         0.52646
