         429
 CSIRO Nanostructure Databank - Neutral Graphene Oxide Data Set
C          1.21748         3.46385         0.37390
C         -0.00174         4.07804         0.03275
C          1.18265         6.13782        -0.64457
C         -0.04642         5.36363        -0.46229
C          1.12404         7.63979        -0.91674
C         -0.13711         8.40684        -0.94228
C          1.11420        10.52641        -1.11470
C         -0.11567         9.76192        -0.99783
C          1.05805        11.99141        -1.33330
C         -0.15420        12.76917        -1.02857
C          1.03537        14.93731        -1.01158
C         -0.14186        14.14048        -0.95052
C          0.93613        16.35309        -0.77372
C         -0.14265        16.99316        -0.08971
C          1.13883        19.10449         0.01994
C         -0.04544        18.33106         0.22864
C          1.19103        20.48068         0.39214
C          0.07370        21.21652         0.81816
C          1.22103        23.38430         0.64033
C          0.08592        22.61120         0.92779
C          1.21113        24.81400         0.57681
C          0.01968        25.54979         0.82474
C          1.21389        27.66892         0.65734
C          0.01905        26.92383         0.87171
C          1.24138        29.09395         0.82981
C          0.08667        29.84956         1.06195
C          1.33554        31.96700         1.24744
C          0.12750        31.22095         1.31007
C          1.36287        33.37644         1.47044
C          0.15487        34.14061         1.73507
C          1.50845        36.09292         2.45405
C          0.19598        35.43495         2.12151
C          1.47908        37.59263         2.34548
C          3.66284         3.56850         0.66523
C          2.44471         4.17194         0.28590
C          3.63782         6.27251        -0.12900
C          2.44856         5.54387        -0.14724
C          3.61984         7.74740        -0.27058
C          2.34100         8.45565        -0.58365
C          3.60339        10.59329        -1.06101
C          2.33807         9.88649        -1.00021
C          3.62261        11.97335        -1.11044
C          2.37376        12.75094        -1.30548
C          3.68143        14.88296        -1.04839
C          2.35569        14.19150        -0.77435
C          3.82995        16.15167        -1.54402
C          1.99135        17.21708        -1.16603
C          3.58122        19.12685        -0.72998
C          2.27583        18.49124        -0.62451
C          3.65939        20.49167        -0.30148
C          2.48963        21.15808         0.31815
C          3.66487        23.44069        -0.04709
C          2.50407        22.69267         0.46316
C          3.63694        24.83246        -0.07602
C          2.41414        25.54001         0.28093
C          3.58314        27.69996        -0.14576
C          2.39529        26.94660         0.31258
C          3.64303        29.18011         0.08815
C          2.58278        29.76956         0.99376
C          3.74287        31.97884         0.70140
C          2.55504        31.27941         0.93473
C          3.77375        33.40486         0.89372
C          2.59576        34.07574         1.37326
C          3.79647        36.20854         1.40185
C          2.65027        35.46571         1.68974
C          3.80614        37.64372         1.58238
C          2.57027        38.29747         1.99205
C          6.09797         3.69824         1.06276
C          4.87370         4.28331         0.62341
C          6.10112         6.39417         0.19581
C          4.87644         5.65699         0.22037
C          6.10590         7.77368        -0.26633
C          4.90424         8.43138        -0.51081
C          6.22258        10.52068        -1.12539
C          4.86863         9.79044        -1.05998
C          6.20211        12.01328        -1.15122
C          4.89982        12.73797        -1.13008
C          6.21387        14.88498        -0.96484
C          4.92991        14.16441        -0.59588
C          6.20760        16.31327        -1.12792
C          4.95926        16.99905        -1.32889
C          6.05316        19.12166        -1.01957
C          4.83420        18.43044        -1.10714
C          6.10310        20.48404        -0.49449
C          4.85166        21.23669        -0.32514
C          6.07808        23.38525        -0.43469
C          4.88800        22.68363        -0.25517
C          6.05944        24.82525        -0.89378
C          4.84141        25.59142        -0.40414
C          6.04737        27.76847        -0.73571
C          4.83255        26.96337        -0.42066
C          6.09553        29.21415        -0.38158
C          4.94663        29.89179         0.02786
C          6.14475        32.02838         0.04679
C          4.96405        31.29725         0.28539
C          6.14924        33.47711         0.16979
C          4.94984        34.14179         0.64150
C          6.09586        36.32378         0.54378
C          4.95759        35.55940         0.85389
C          6.13511        37.72540         0.81964
C          4.94798        38.36579         1.30939
C          8.48715         3.79692         1.71608
C          7.26937         4.42664         1.08869
C          8.56506         6.49205         0.54290
C          7.30365         5.77931         0.61624
C          8.59705         7.82321         0.10522
C          7.37024         8.49295        -0.29239
C          8.60638        10.65909        -0.17167
C          7.40014         9.84837        -0.58333
C          8.62531        12.05724        -0.71486
C          7.45706        12.74236        -0.85166
C          8.67541        14.90415        -0.90841
C          7.43406        14.19685        -0.96118
C          8.66666        16.34798        -0.98735
C          7.41620        17.02117        -1.16491
C          8.63623        19.22139        -1.20339
C          7.34339        18.48466        -1.50227
C          8.65654        20.54925        -0.90316
C          7.41273        21.20089        -0.40326
C          8.63669        23.44953        -0.43952
C          7.36799        22.69366        -0.27664
C          8.57793        24.91596        -0.67359
C          7.37789        25.56529        -0.70973
C          8.62739        27.78308        -0.64466
C          7.36638        27.03773        -0.86402
C          8.58373        29.22792        -0.60924
C          7.33741        29.91914        -0.46543
C          8.56286        32.06335        -0.51406
C          7.35094        31.33947        -0.31060
C          8.48636        33.53338        -0.68436
C          7.25812        34.21482        -0.22289
C          8.49506        36.50099        -0.34782
C          7.22206        35.68751        -0.15919
C          8.55613        37.81902         0.33289
C          7.34282        38.44048         0.71697
C         10.97297         3.84878         1.68670
C          9.77972         4.49385         1.38551
C         11.05244         6.46290         0.65136
C          9.79694         5.81387         0.86907
C         11.08234         7.81505         0.19943
C          9.86091         8.52066        -0.02477
C         11.13021        10.56853        -0.54411
C          9.89455         9.89861        -0.33069
C         11.17459        12.00277        -0.78274
C          9.90258        12.71806        -1.14896
C         11.13168        14.87608        -0.77881
C          9.91279        14.20139        -0.87831
C         11.11432        16.35807        -0.48502
C          9.87114        17.05138        -0.97263
C         11.17283        19.18851        -1.10955
C          9.91209        18.46265        -1.50680
C         11.15690        20.63528        -1.07092
C          9.88851        21.33831        -0.96404
C         11.06959        23.52383        -0.98489
C          9.85998        22.71406        -0.81990
C         11.04392        24.96045        -0.64400
C          9.84622        25.63598        -0.62954
C         11.09558        27.77963        -0.47878
C          9.83107        27.08682        -0.55222
C         11.05047        29.24169        -0.36715
C          9.78687        29.96271        -0.57702
C         11.05872        32.10724        -0.80740
C          9.79351        31.38712        -0.63686
C         11.06260        33.56899        -0.78773
C          9.77035        34.31213        -0.88269
C         11.00684        36.39144        -0.05281
C          9.81062        35.85590        -0.79222
C         11.02076        37.68212         0.46620
C          9.78804        38.39285         0.64433
C         13.42488         3.79208         1.82919
C         12.22109         4.46891         1.46289
C         13.55208         6.41548         0.66541
C         12.28118         5.78180         0.91193
C         13.57018         7.80189         0.34468
C         12.33385         8.48467         0.04708
C         13.60369        10.45683        -0.81540
C         12.33573         9.83224        -0.40002
C         13.62171        11.96567        -1.06249
C         12.36464        12.71506        -0.86432
C         13.59499        14.91023        -0.75910
C         12.38239        14.17861        -0.81472
C         13.61873        16.34390        -0.78236
C         12.39792        17.05869        -0.84456
C         13.67280        19.20315        -1.15442
C         12.36370        18.46900        -0.98765
C         13.58487        20.59910        -0.59460
C         12.34343        21.33678        -0.90057
C         13.63621        23.53299        -0.62311
C         12.39824        22.79172        -0.96638
C         13.61190        24.93535        -0.55357
C         12.32182        25.64086        -0.20888
C         13.57979        27.82466        -0.58622
C         12.32158        27.12191        -0.47550
C         13.60373        29.23053        -0.70989
C         12.35840        29.99592        -0.49155
C         13.55008        32.08958        -1.04327
C         12.26490        31.41263        -0.87696
C         13.53459        33.56917        -0.73331
C         12.23748        34.24739        -0.56970
C         13.41924        36.13591         0.57962
C         12.31573        35.75413        -0.42025
C         13.47487        37.63462         0.81005
C         12.27734        38.31655         0.83051
C         15.89440         3.52431         1.78705
C         14.64953         4.35167         1.56220
C         16.05132         5.94609         0.41356
C         14.75051         5.60683         0.86414
C         15.99006         8.24669         1.12607
C         14.79220         8.59781         0.30018
C         16.14231        10.48024        -0.63188
C         14.84971         9.80077        -0.37048
C         16.20785        11.97142        -0.90490
C         14.91740        12.73134        -1.07758
C         16.15040        14.88718        -0.50331
C         14.89734        14.21112        -0.89504
C         16.13946        16.31843        -0.48453
C         14.89120        17.05585        -0.71166
C         16.09590        19.21685        -0.48612
C         14.90069        18.45517        -0.70074
C         16.11923        20.61928        -0.40455
C         14.84269        21.35883        -0.36767
C         16.07518        23.52176        -0.41435
C         14.85188        22.82901        -0.48613
C         16.06762        24.94773        -0.50008
C         14.83051        25.66190        -0.53350
C         16.05847        27.79936        -0.76761
C         14.82732        27.10316        -0.61339
C         16.08235        29.23025        -0.94149
C         14.83352        29.93180        -0.88717
C         16.04775        32.06560        -0.84441
C         14.83240        31.35420        -0.88818
C         16.03060        33.45076        -0.40802
C         14.72151        34.01701         0.09246
C         15.93450        36.02822         1.03378
C         14.78260        35.55885         0.14834
C         15.93427        37.53726         1.15787
C         14.73227        38.23980         1.12756
C         18.14881         3.96739         2.81834
C         17.11578         4.38562         1.97137
C         18.34022         6.44828         1.44958
C         17.21536         5.58703         1.23388
C         18.45698         7.78403         0.85326
C         17.33860         8.53429         0.53032
C         18.73666        10.53283        -0.29950
C         17.41777         9.75875        -0.27862
C         18.64355        12.02286        -0.24408
C         17.44045        12.71492        -0.51986
C         18.56760        14.84452        -0.01009
C         17.37215        14.14493        -0.35072
C         18.56842        16.34361         0.20046
C         17.33868        17.01974        -0.33849
C         18.64369        19.22687        -0.26244
C         17.37123        18.47698        -0.47881
C         18.53574        20.64003         0.28180
C         17.31333        21.37734        -0.20572
C         18.55355        23.52400        -0.17082
C         17.31075        22.78242        -0.24049
C         18.53974        24.93876        -0.38099
C         17.30292        25.66265        -0.52100
C         18.52634        27.76467        -0.94629
C         17.29488        27.07133        -0.70437
C         18.50855        29.14072        -1.35098
C         17.30019        29.94628        -1.19246
C         18.45752        32.23928        -1.23247
C         17.29907        31.39280        -1.12717
C         18.41257        33.73702        -0.94139
C         17.19170        34.17918        -0.19684
C         18.41606        36.13738         0.68777
C         17.22064        35.45042         0.47679
C         18.39111        37.46691         1.27731
C         17.17734        38.15653         1.43214
C         19.29368         4.74475         2.94740
C         20.62326         6.74027         2.39816
C         19.39763         5.97578         2.27369
C         20.85285         7.83112         1.63749
C         19.82375         8.37057         0.72823
C         21.06592        10.67418         0.68779
C         19.95379         9.82931         0.23858
C         20.97975        12.02350         0.63279
C         19.79010        12.73554         0.21406
C         20.95404        14.93436         0.60328
C         19.75778        14.15760         0.26893
C         21.04463        16.24931         0.34468
C         19.89360        17.00015        -0.27405
C         21.01430        19.22746         0.29832
C         19.90059        18.48831         0.04431
C         20.99314        20.67381         0.27353
C         19.83580        21.39658         0.15371
C         20.98723        23.60031         0.00292
C         19.79370        22.84659         0.00627
C         20.97699        24.96213        -0.24469
C         19.76638        25.64944        -0.48151
C         20.94674        27.64438        -1.34507
C         19.75622        27.03961        -0.89503
C         20.90255        28.89957        -1.93413
C         19.69664        29.60801        -1.95711
C         20.85486        32.60536        -1.71815
C         19.66278        31.88190        -1.86793
C         20.89398        33.74170        -0.89107
C         19.71510        34.30718        -0.41026
C         20.86658        36.21048         0.70270
C         19.69324        35.54467         0.32633
C         20.82833        37.46417         1.34639
C         19.62755        38.09789         1.60166
O          2.78118         8.34894         0.82230
O         16.28680        11.00649        -1.99197
O         11.76256        29.73196         0.83384
O         15.00717        13.59524        -2.25888
O          7.51908        36.41309        -1.42642
O          3.20471        28.69267        -1.20530
O         18.28230         9.78009        -1.45231
O          8.13669        23.13525         0.92286
O         11.80803        23.28913        -2.23626
O          5.61843        12.57548        -2.38685
O         19.69549        30.77645        -2.72642
O         13.55726        11.00578        -2.16999
O         14.01110        20.83266         0.77906
O          2.76016        16.75521        -2.22290
O          2.85177        21.80970         1.58335
O         15.87610         7.89835         2.29682
O         18.24320        18.99281        -1.64928
O          1.71978        12.48597        -2.56902
O         13.71300        33.10905        -2.09943
O          8.96713        33.92115        -2.04197
O          5.64031         9.90421        -2.30487
O          1.31119         6.71512        -2.02615
O          6.92199        20.52802         0.79813
O          6.61573        27.48063        -2.06918
O         20.34989         8.69378        -0.59332
O         13.01567        35.54953         1.83594
H         13.77280        35.62423         2.45985
O          5.89582        24.75950        -2.35779
H          5.97937        25.69045        -2.68315
O          3.04371        29.43309         2.35301
H          2.38115        29.78490         2.98470
O          7.25845        18.53534        -2.99549
H          6.52123        17.94189        -3.26114
O         13.83858        19.40023        -2.59573
H         13.75508        18.52841        -3.03680
O          8.45873        10.86789         1.29359
H          8.52411         9.98516         1.71847
O         16.20411         6.56758        -0.77036
H         17.14732         6.73650        -0.97463
O         18.31061        20.44752         1.72072
H         18.25378        21.33316         2.13731
O         18.27146        34.37441        -2.27538
H         17.32344        34.32812        -2.52684
O         15.72594         2.62258         2.88044
H         15.48111         3.14375         3.67214
O         14.46950        33.42477         1.39039
H         15.09038        33.83277         2.03801
O          1.75570        35.79964         3.88003
H          1.77195        34.82335         3.97318
O          9.85330        12.59346        -2.62474
H         10.73828        12.83301        -2.97588
O         15.76777        35.51945         2.40247
H         16.50938        35.87656         2.93720
O          8.56421         2.40048         1.39986
H          8.72742         2.31464         0.43840
O         11.03674        16.44986         0.99932
H         11.81321        15.96955         1.35859
O          4.95538        14.03068         0.87575
H          5.22056        14.89749         1.25159
O         12.28879        25.52232         1.27153
H         11.60898        26.14687         1.60568
O         15.16302        36.03139        -1.15517
H         14.36290        36.06707        -1.73603
O         10.00549        18.30686        -2.96703
H          9.07910        18.30124        -3.31774
O         12.64354        36.29236        -1.73526
H         11.80259        36.28707        -2.26465
O         18.54081        16.57690         1.65095
H         17.69809        16.21812         1.99986
O         10.00698        36.29873        -2.17649
H          9.23674        35.93593        -2.67666
O          2.28341        14.02660         0.68914
H          3.21053        13.92570         1.03203
O         20.00293        16.88166        -1.70811
H         19.38822        17.55056        -2.10103
H          1.22488         2.42273         0.72538
H         -0.93515         3.50657         0.13619
H         -1.00185         5.79497        -0.78991
H         -1.09617         7.87094        -0.96632
H         -1.07244        10.30014        -1.04303
H         -1.11405        12.24627        -0.91279
H         -1.10894        14.65445        -0.84182
H         -1.03500        16.42543         0.20557
H         -0.89271        18.79978         0.74612
H         -0.88508        20.70516         0.97794
H         -0.86294        23.10617         1.17467
H         -0.92070        25.01622         1.01480
H         -0.91908        27.44354         1.10646
H         -0.89940        29.36534         1.03760
H         -0.82029        31.73688         1.50971
H         -0.82117        33.65963         1.57952
H         -0.73576        35.98936         2.30871
H          0.55511        38.10884         2.64702
H          3.66158         2.52658         1.01766
H          2.54425        39.39777         1.97823
H          6.10284         2.65726         1.41749
H          4.95859        39.45571         1.45864
H          8.35027         3.85124         2.83492
H          7.37654        39.47682         1.08554
H         10.94327         2.83461         2.11027
H          9.81048        39.38594         1.11715
H         13.36897         2.79312         2.28434
H         12.25456        39.38326         1.10266
H         16.05438         2.88633         0.87046
H         14.75185        39.32565         1.31573
H         18.04378         3.01793         3.36109
H         17.19990        39.22099         1.71182
H         20.12460         4.40950         3.58405
H         21.40747         6.35163         3.06391
H         21.83953         8.31301         1.65064
H         22.00617        10.19865         0.99677
H         21.85765        12.60219         0.94432
H         21.82596        14.42274         1.03202
H         21.98886        16.77504         0.54668
H         21.99089        18.74563         0.44782
H         21.96954        21.17849         0.29585
H         21.95103        23.10420         0.17707
H         21.93304        25.50163        -0.25207
H         21.89568        27.09410        -1.33133
H         21.79196        29.33360        -2.40816
H         21.76833        32.24161        -2.20574
H         21.86985        34.19316        -0.66478
H         21.84807        35.77107         0.47958
H         21.77444        37.95555         1.61363
H         19.61160        39.09747         2.05899
