         324
 CSIRO Nanostructure Databank - Neutral Graphene Oxide Data Set
C          1.28660         1.48678         0.34074
C          1.15837         2.86779         0.59530
C          2.53571         0.96753         0.08856
C          2.26185         3.70873         0.50878
C          1.09032         6.87668        -0.12559
C          1.21289         8.09563        -0.77805
C          2.21995         6.07443         0.09765
C          2.47283         8.59430        -1.16947
C          1.40431        10.80846        -1.76365
C          1.39685        12.23369        -1.71273
C          2.51911        10.06093        -1.38952
C          2.37305        12.96370        -1.05289
C          1.29973        15.17082        -1.38725
C          1.34584        16.55304        -1.46284
C          2.41241        14.41124        -0.95565
C          2.52514        17.24192        -1.11182
C          2.62632        18.67363        -1.30206
C          3.68718         1.81160         0.04880
C          3.57070         3.24289         0.17954
C          4.95159         1.21829        -0.08342
C          4.74204         4.06909         0.01836
C          3.48132         6.42055        -0.41737
C          3.60503         7.71636        -1.02376
C          4.67832         5.51701        -0.39975
C          4.93851         8.20907        -1.27410
C          3.65349        10.82196        -0.91104
C          3.46446        12.20123        -0.41116
C          4.93886        10.35208        -1.07805
C          4.67633        12.89636         0.13536
C          3.59098        15.09605        -0.50497
C          3.62243        16.50920        -0.59646
C          4.77796        14.37192        -0.03545
C          4.83286        17.26576        -0.21781
C          3.80430        19.34204        -1.14765
C          4.99855        18.65578        -0.71712
C          6.11911         1.99740        -0.02359
C          6.01284         3.43789        -0.00889
C          7.37665         1.34600        -0.03940
C          7.27289         4.17039        -0.00384
C          6.03335         6.25552        -0.47453
C          6.07932         7.71993        -0.66125
C          7.26223         5.57645        -0.09532
C          7.27908         8.52251        -0.41212
C          6.08204        10.76807        -0.33216
C          5.93719        12.08471         0.34942
C          7.21320         9.95883        -0.15060
C          7.19714        12.80496         0.75583
C          5.96998        15.00797         0.22794
C          6.05793        16.48724         0.16671
C          7.15873        14.30869         0.80460
C          7.39304        17.09486        -0.13664
C          6.23027        19.26213        -0.72174
C          7.46588        18.55191        -0.45874
C          8.58914         2.05998         0.05610
C          8.51653         3.47694         0.09982
C          9.84566         1.36863         0.06073
C          9.75155         4.28141         0.41936
C          8.49009         6.34340        -0.38969
C          8.50370         7.82641        -0.29168
C          9.77267         5.59810        -0.36139
C          9.75958         8.47848        -0.03256
C          8.38893        10.60270         0.50329
C          8.47247        12.07766         0.57929
C          9.71944         9.84963         0.50919
C          9.69365        12.72721         0.75754
C          8.47328        15.01751         0.98018
C          8.63265        16.38722         0.32437
C          9.70106        14.15466         1.04801
C          9.87785        17.20984         0.36427
C          8.67835        19.14616        -0.64820
C          9.99027        18.39173        -0.58214
C         11.08228         2.02746         0.14381
C         11.07848         3.50042         0.35594
C         12.31126         1.35445        -0.00028
C         12.35704         4.21944         0.04822
C         11.04408         6.39232        -0.46279
C         11.00765         7.84390        -0.14570
C         12.33038         5.65378        -0.38579
C         12.23280         8.53021         0.19477
C         10.97569        10.61825         0.61678
C         10.94242        12.00524         0.82011
C         12.20437         9.89825         0.53220
C         12.22943        12.76040         0.90725
C         10.86275        14.73666         1.46299
C         10.96902        16.87670         1.10513
C         12.20368        14.24636         1.15909
C         12.32600        17.31510         0.82381
C         11.12993        19.33661        -0.13539
C         12.41012        18.60608         0.23717
C         13.57811         2.02600        -0.08739
C         13.60402         3.44940        -0.16317
C         14.81586         1.34108        -0.11924
C         14.82715         4.14256        -0.19395
C         13.59400         6.42859        -0.21218
C         13.51101         7.83661         0.25310
C         14.84643         5.62903        -0.14935
C         14.69462         8.48345         0.58129
C         13.43383        10.55471         1.03834
C         13.45064        12.01948         1.33981
C         14.73697         9.89938         0.83330
C         14.80208        12.73712         1.63574
C         13.44255        15.06465         1.46376
C         13.48092        16.51473         1.04554
C         14.74558        14.27887         1.49894
C         14.75259        17.12526         0.87559
C         13.64858        19.20903         0.11657
C         14.81934        18.50899         0.50291
C         16.05609         2.03507        -0.15409
C         16.05365         3.46689        -0.18207
C         17.30485         1.35099        -0.11984
C         17.34704         4.24428        -0.33532
C         16.02827         6.23383         0.51660
C         15.94875         7.72166         0.80513
C         17.32176         5.60310         0.31923
C         17.22138         8.43196         0.77907
C         15.91744        10.63171         0.75881
C         15.97554        12.07176         0.92599
C         17.16205         9.87662         0.45376
C         17.14563        12.79489         0.73076
C         16.00595        14.97258         1.13205
C         15.99479        16.38563         0.99549
C         17.20024        14.24198         0.89788
C         17.24070        17.07637         0.90607
C         16.06636        19.18586         0.48726
C         17.25895        18.51481         0.73464
C         18.53854         2.04698         0.04587
C         18.56214         3.47260         0.09326
C         19.75803         1.33808         0.19664
C         19.75062         4.17101         0.41630
C         18.48738         6.29903         0.64669
C         18.41458         7.74525         0.80929
C         19.75434         5.60714         0.63616
C         19.66818         8.52222         0.98007
C         18.43939        10.61699         0.25960
C         18.38038        12.11495         0.25430
C         19.71481         9.94304         0.59672
C         19.69126        12.83163         0.27902
C         18.44857        14.95229         0.81110
C         18.45609        16.35804         0.92975
C         19.71501        14.26818         0.60478
C         19.76089        17.09146         1.15776
C         18.50278        19.21217         0.66880
C         19.71815        18.55010         0.75949
C         20.97334         2.01553         0.42198
C         20.95072         3.43219         0.58108
C         22.23028         1.31840         0.37816
C         22.17738         4.13781         0.95513
C         20.98243         6.29625         0.88949
C         20.97373         7.77059         1.12111
C         22.19253         5.60817         0.91664
C         22.21454         8.54364         0.92644
C         20.92469        10.63058         0.55613
C         20.95522        12.06430         0.36495
C         22.18325         9.90811         0.70322
C         22.15664        12.76545         0.26020
C         20.92440        14.94061         0.46157
C         20.97176        16.38452         0.58620
C         22.16107        14.21661         0.18833
C         22.11473        17.08399         0.29008
C         20.93736        19.23365         0.56576
C         22.14719        18.53888         0.37081
C         23.45803         1.96155         0.50655
C         23.48559         3.36390         0.99834
C         24.66992         1.31447         0.13404
C         24.78465         4.12739         0.96009
C         23.48140         6.31202         1.11870
C         23.48589         7.81545         1.15263
C         24.76168         5.60125         0.81020
C         24.81481         8.54400         0.97141
C         23.42895        10.61808         0.41317
C         23.40172        12.04275         0.14045
C         24.62575         9.93052         0.40160
C         24.57035        12.74607        -0.16730
C         23.34725        14.90643        -0.07128
C         23.29470        16.39878        -0.35776
C         24.56998        14.17428        -0.27496
C         24.62295        17.13430        -0.15871
C         23.35153        19.24619         0.18752
C         24.59478        18.65104        -0.11604
C         25.90206         1.97712         0.04940
C         26.01368         3.39174         0.48413
C         27.05648         1.35709        -0.46429
C         27.15605         4.18707         0.00462
C         25.89110         6.28306         0.41076
C         25.78791         7.75937         0.04811
C         27.12498         5.58918         0.07615
C         27.12263         8.48409         0.04293
C         25.82434        10.54127        -0.16026
C         25.81637        12.02202        -0.46371
C         27.11819         9.84807         0.00837
C         27.10091        12.74662        -0.57319
C         25.77828        14.82938        -0.59537
C         25.81595        16.30727        -0.53052
C         27.02621        14.14384        -0.73663
C         27.02111        16.92989        -1.09239
C         25.74248        19.46845        -0.03627
C         27.00673        19.07244        -0.56962
C         28.26018         2.07259        -0.67091
C         28.30212         3.49462        -0.47586
C         29.43788         1.41222        -1.13306
C         29.49659         4.21983        -0.75111
C         28.32857         6.32876        -0.21610
C         28.36150         7.74118        -0.08435
C         29.52596         5.63834        -0.57632
C         29.58448         8.44616        -0.20433
C         28.33537        10.69605         0.28682
C         28.34682        12.05327        -0.44087
C         29.62804         9.88941         0.13947
C         29.56681        12.73669        -0.57060
C         28.26130        14.87720        -1.07455
C         28.25055        16.36035        -1.05735
C         29.60104        14.14054        -1.03840
C         29.47259        17.19625        -1.22239
C         28.31496        19.33305        -0.21363
C         29.47381        18.60976        -0.72287
C         30.60244         2.11039        -1.36536
C         30.66302         3.52167        -1.17720
C         31.85823         4.25990        -1.39883
C         30.73986         6.35802        -0.80143
C         30.76932         7.77879        -0.59194
C         31.89586         5.62350        -1.20749
C         31.95461         8.55845        -0.88944
C         30.90636        10.64270        -0.10128
C         30.83045        12.12320        -0.26324
C         32.01319         9.90440        -0.73046
C         31.96841        12.89749        -0.16430
C         30.82769        14.94915        -0.85728
C         30.83119        16.41928        -1.13539
C         31.94374        14.30836        -0.37216
C         32.01415        17.19948        -0.75579
C         30.70027        19.23781        -0.54481
C         31.94636        18.55427        -0.60225
O         14.47797         6.29160        -1.39930
O          3.59768        12.45334         1.03238
O         14.10831        14.82484         2.72907
O         25.64604        11.02484        -1.54699
O         12.35421        13.69617        -0.21090
O         18.93451        12.64187        -1.00066
O          2.02068         5.00742         0.95990
O         30.25104        16.87969        -2.39987
O         23.49191         7.05185         2.41081
O         15.79340         6.72628         1.87845
O         30.56116        10.15984         1.25205
O         25.75207         3.60603         1.92311
O          5.40387         5.61872        -1.66591
O         13.15861        11.07870         2.40639
O          5.26517        17.15034         1.19421
O          8.87233         9.92846         1.70911
O         28.89541        14.36725        -2.29956
O         17.71309        10.08129        -0.91127
O          9.06522         5.68699        -1.62482
O         10.80058        15.94807         2.14512
O          5.08808         9.35764        -2.05299
O          8.16474        16.27963        -1.09252
O         11.93600         3.97848         1.45519
O         25.50329        16.67294         0.90997
O         26.86184        18.18742        -1.65613
O         20.24187         8.21959         2.31395
O          7.56041        14.90694         2.09869
O         22.75179         3.58425         2.22462
O          6.35848        12.11515         1.74506
O         11.74303         5.95098        -1.68729
O         10.31041        17.92918        -1.91985
H          9.61530        17.26933        -2.15329
O          9.55366         4.69699         1.80501
H         10.41416         4.57613         2.27450
O         11.37641        20.27731        -1.17640
H         11.34047        19.77336        -2.01924
O         28.19669        11.06581         1.68885
H         29.07762        10.91055         2.10847
O         25.44606         8.69227         2.25580
H         25.01142         8.05147         2.86829
O         19.93866        17.08176         2.61846
H         20.76491        17.57239         2.81544
O         25.20245         7.80376        -1.28129
H         25.91336         7.68309        -1.94412
O         17.49486         4.49758        -1.78656
H         17.42077         3.63394        -2.24522
O         23.07627        16.51551        -1.80537
H         22.23312        16.06413        -2.02301
O         15.11631        12.48883         3.02152
H         14.55322        13.08387         3.56623
H          0.40395         0.83522         0.38783
H          0.18837         3.29200         0.88441
H          2.67547        -0.11308        -0.05337
H          0.11822         6.54999         0.26478
H          0.32142         8.72857        -0.88148
H          0.51548        10.31137        -2.17690
H          0.54759        12.74946        -2.18292
H          0.37771        14.65417        -1.68553
H          0.47319        17.11708        -1.82110
H          1.73045        19.20970        -1.64763
H          5.03076         0.12586        -0.18059
H          3.86988        20.41567        -1.37686
H          7.39954         0.24719        -0.08441
H          6.30931        20.31273        -1.04069
H          9.83311         0.27610        -0.06695
H          8.72006        20.20397        -0.95153
H         12.29682         0.25690        -0.07948
H         10.78086        19.90953         0.76774
H         14.82418         0.24228        -0.06506
H         13.72624        20.23385        -0.27268
H         17.31395         0.25117        -0.12851
H         16.08435        20.26144         0.25845
H         19.75723         0.24062         0.12121
H         18.48885        20.29234         0.45717
H         22.21709         0.25557         0.09343
H         20.92750        20.32925         0.46053
H         24.61475         0.26324        -0.18741
H         23.31734        20.34227         0.28691
H         27.01834         0.28937        -0.72755
H         25.63395        20.46469         0.42162
H         29.40663         0.32424        -1.28967
H         28.51615        20.12498         0.52426
H         31.50452         1.58114        -1.70518
H         32.76483         3.72532        -1.71734
H         32.84539         6.14898        -1.37425
H         32.81984         8.05041        -1.33644
H         32.89187        10.46491        -1.08119
H         32.92581        12.42598         0.09707
H         32.88042        14.85531        -0.20424
H         32.97843        16.69400        -0.61215
H         30.70844        20.28986        -0.22410
H         32.86171        19.12118        -0.38097
