         404
 CSIRO Nanostructure Databank - Neutral Graphene Oxide Data Set
C          1.23942         3.36706        -0.73630
C          0.03088         4.05153        -0.69609
C          1.18408         6.16934        -0.25099
C         -0.00657         5.42928        -0.46324
C          1.15971         7.56925         0.04439
C          0.00680         8.37912        -0.18511
C          1.04377        10.44631         0.84053
C         -0.02339         9.72343         0.04973
C          1.12133        11.92510         0.51949
C         -0.11130        12.67173         0.50846
C          1.06404        14.81917         0.21561
C         -0.15845        14.02739         0.39267
C          1.08903        16.28940         0.45510
C         -0.12558        17.02033         0.42931
C          1.05505        19.15764         0.58924
C         -0.14794        18.39415         0.51749
C          1.02216        20.56207         0.75364
C         -0.19410        21.32536         0.80998
C          0.99405        23.46223         1.23111
C         -0.21442        22.68634         0.90368
C          1.05200        24.92935         1.05650
C         -0.16321        25.67547         0.89263
C          1.04742        27.75498         0.47312
C         -0.17410        27.00969         0.57745
C          1.12735        29.00231        -0.14273
C          0.01255        29.50979        -0.88792
C          1.40447        31.31245        -1.78263
C          0.19360        30.52874        -1.77779
C          1.41655        33.62497        -2.33775
C          0.29096        34.37862        -2.68135
C          1.47304        36.38857        -2.06797
C          0.29247        35.75668        -2.48626
C          1.52142        37.82421        -2.00365
C          3.70254         3.38273        -0.62678
C          2.46686         4.06495        -0.55577
C          3.67485         6.18936        -0.18876
C          2.44018         5.47571        -0.30812
C          3.68243         7.58315         0.09987
C          2.41119         8.23508         0.45015
C          3.64565        10.48134         0.49888
C          2.40181         9.72601         0.76813
C          3.60952        11.90202         0.49053
C          2.33208        12.58806         0.49475
C          3.54793        14.77268         0.89926
C          2.36065        14.05644         0.30270
C          3.56731        16.26202         0.63726
C          2.31319        16.97768         0.57733
C          3.52704        19.11406         0.71260
C          2.31553        18.43182         0.59424
C          3.59613        20.56706         0.61012
C          2.27400        21.32549         0.67195
C          3.60027        23.47689         1.07595
C          2.32266        22.72749         1.17162
C          3.55987        24.91554         1.13250
C          2.28223        25.58653         1.04261
C          3.54966        27.82243         0.99858
C          2.25882        27.07058         0.99727
C          3.54048        29.27470         0.60280
C          2.48600        29.64063        -0.42216
C          3.61688        32.01883        -0.71788
C          2.45403        31.08845        -0.92365
C          3.73955        33.41116        -1.32720
C          2.59448        34.18165        -1.77709
C          3.86506        36.28782        -1.48700
C          2.63900        35.61475        -1.75753
C          3.89915        37.72730        -1.50969
C          2.68866        38.47065        -1.73599
C          6.17183         3.39078        -0.58293
C          4.93042         4.07025        -0.50352
C          6.13948         6.20747        -0.21826
C          4.91117         5.49419        -0.31284
C          6.13127         7.64420        -0.06972
C          4.88909         8.32251         0.14134
C          6.07533        10.47720         0.07177
C          4.86331         9.76258         0.28105
C          6.06108        11.97953        -0.09131
C          4.81534        12.67172         0.39898
C          6.05048        14.82359         0.61577
C          4.84182        14.06421         0.58173
C          6.04922        16.22973         0.72062
C          4.78483        16.92711         0.73343
C          6.07784        19.13881         1.03713
C          4.77073        18.38043         0.98120
C          6.06520        20.61460         0.91272
C          4.84628        21.30788         0.89992
C          6.07670        23.43154         1.23713
C          4.79742        22.73486         1.01329
C          6.04184        24.93678         1.31179
C          4.77549        25.67477         1.12932
C          6.03406        27.84963         0.95068
C          4.82772        27.08641         0.98411
C          6.09772        29.25224         0.73057
C          4.83102        30.02013         0.57108
C          6.18816        31.98692        -0.28490
C          4.84942        31.41137        -0.03382
C          6.20155        33.33652        -0.87067
C          4.94288        34.09837        -1.11629
C          6.28041        36.24746        -1.05317
C          5.04571        35.53182        -1.25813
C          6.29730        37.67891        -1.08877
C          5.10261        38.39799        -1.32361
C          8.64564         3.38572        -0.61993
C          7.39524         4.08049        -0.46663
C          8.60917         6.24072        -0.10499
C          7.35793         5.49589        -0.26196
C          8.60549         7.70634        -0.27972
C          7.34350         8.38434        -0.18245
C          8.51342        10.58891        -0.43722
C          7.28122         9.81111        -0.16652
C          8.58758        11.98300         0.00685
C          7.33507        12.61098         0.42863
C          8.59351        14.82486         0.45775
C          7.33610        14.10028         0.67880
C          8.54476        16.27278         0.50086
C          7.30676        16.97212         0.69499
C          8.52132        19.13129         0.58758
C          7.32225        18.39302         0.75735
C          8.53993        20.59433         0.62977
C          7.32003        21.30776         0.83806
C          8.55797        23.42185         0.84023
C          7.34599        22.72467         0.93287
C          8.56343        24.90504         0.81256
C          7.30171        25.67009         0.98986
C          8.59978        27.87346         1.24847
C          7.29298        27.14002         1.27053
C          8.58658        29.26972         0.76442
C          7.34318        29.93167         0.54904
C          8.64552        32.01314         0.00857
C          7.36000        31.31567         0.06208
C          8.66931        33.38066        -0.21966
C          7.50803        34.10167        -0.74453
C          8.64985        36.30836        -0.40345
C          7.49477        35.58199        -0.73007
C          8.67304        37.72205        -0.51449
C          7.50991        38.38471        -0.87324
C         11.12741         3.38093        -0.78085
C          9.87813         4.03849        -0.62550
C         11.07118         6.28475        -0.75701
C          9.90001         5.48816        -0.31895
C         11.08378         7.73016        -0.48421
C          9.82736         8.39137        -0.39065
C         11.09058        10.58922        -0.30475
C          9.83658         9.85499        -0.55174
C         11.06270        11.98419        -0.12895
C          9.79099        12.67688         0.04951
C         11.03119        14.82598        -0.03622
C          9.76716        14.11283         0.22373
C         11.02623        16.32666         0.07802
C          9.74593        17.01116         0.38951
C         10.99789        19.12732         0.19544
C          9.72733        18.41340         0.43144
C         11.00395        20.62171         0.18716
C          9.74285        21.32440         0.48081
C         11.03541        23.47384         0.46910
C          9.78233        22.73945         0.61320
C         11.09815        24.87893         0.61275
C          9.87188        25.58633         1.04262
C         11.13842        27.78762         0.89112
C          9.88551        27.07726         1.20215
C         11.07587        29.18235         0.79262
C          9.84047        29.91173         0.61073
C         11.12498        31.99769         0.32880
C          9.88711        31.31484         0.31709
C         11.19425        33.44383         0.08036
C          9.91864        34.16259        -0.18220
C         11.12503        36.33432         0.22405
C          9.80476        35.60150         0.26077
C         11.16476        37.73716         0.08175
C          9.93460        38.53171        -0.30338
C         13.60208         3.42267        -0.71357
C         12.36244         4.06949        -0.77801
C         13.60513         6.31055        -0.71204
C         12.37201         5.54399        -0.93235
C         13.56356         7.72108        -0.56446
C         12.31126         8.43445        -0.49557
C         13.55016        10.57114        -0.19850
C         12.31833         9.86606        -0.32008
C         13.54376        11.98996        -0.03658
C         12.30622        12.69443        -0.00323
C         13.52096        14.83326         0.20804
C         12.31341        14.11227         0.09657
C         13.49274        16.27218         0.43094
C         12.30696        16.97397         0.42246
C         13.50643        19.22605         0.78389
C         12.24218        18.42842         0.64762
C         13.49946        20.64058         0.34458
C         12.28680        21.34415         0.28018
C         13.46741        23.48843         0.02726
C         12.26531        22.77916         0.23682
C         13.51098        24.90530         0.09126
C         12.31039        25.60227         0.47596
C         13.57925        27.71661         0.46738
C         12.35088        27.04071         0.66368
C         13.66942        29.14197         0.77470
C         12.32530        29.92578         0.91687
C         13.58367        32.04414         0.64028
C         12.34913        31.35165         0.63139
C         13.59029        33.48355         0.70378
C         12.36728        34.20257         0.55789
C         13.49978        36.37636         0.93749
C         12.30497        35.61228         0.55917
C         13.56532        37.81368         0.63531
C         12.36854        38.44750         0.22691
C         16.06121         3.47385        -0.65197
C         14.82696         4.14994        -0.67867
C         16.04834         6.31059        -0.51376
C         14.82235         5.59548        -0.62994
C         16.03561         7.73695        -0.42089
C         14.79719         8.44168        -0.41213
C         16.02362        10.57012        -0.10752
C         14.79120         9.85918        -0.24692
C         16.01491        12.00357         0.01903
C         14.78071        12.71467         0.05318
C         16.01546        14.86860         0.20346
C         14.76826        14.13837         0.17645
C         16.03842        16.27475         0.37983
C         14.77748        16.95899         0.71537
C         16.04379        19.20481         0.52086
C         14.80312        18.47949         0.84501
C         15.95700        20.59553         0.21769
C         14.73174        21.29259         0.09585
C         15.92844        23.45395        -0.60529
C         14.61715        22.68152        -0.52963
C         15.94202        24.92700        -0.48834
C         14.72270        25.62889        -0.19047
C         15.94840        27.79661        -0.25957
C         14.75654        27.05717        -0.01300
C         15.99830        29.21903        -0.08075
C         14.84803        29.91488         0.38511
C         16.04614        32.06420         0.34949
C         14.83104        31.33195         0.50544
C         16.05407        33.49280         0.54510
C         14.82824        34.16527         0.79348
C         16.07652        36.35899         0.87560
C         14.83648        35.60437         1.05034
C         16.03627        37.79749         0.87682
C         14.79251        38.48159         0.75176
C         18.53608         3.47915        -0.60342
C         17.28331         4.17293        -0.58639
C         18.51662         6.31605        -0.43046
C         17.28237         5.60037        -0.50189
C         18.52025         7.73469        -0.31273
C         17.26805         8.45303        -0.28020
C         18.52204        10.56231         0.27080
C         17.24942         9.85386        -0.11580
C         18.49150        12.04271        -0.00837
C         17.25782        12.72965         0.03048
C         18.47606        14.88815         0.07641
C         17.24557        14.16169         0.07858
C         18.47569        16.30236         0.24759
C         17.26230        17.00669         0.40591
C         18.50308        19.16639         0.30999
C         17.27076        18.47789         0.47801
C         18.53129        20.63943         0.31567
C         17.20831        21.37097         0.19760
C         18.48336        23.52008        -0.26615
C         17.23449        22.74239        -0.38476
C         18.43277        24.92141        -0.50403
C         17.16247        25.60416        -0.59333
C         18.41743        27.80758        -0.96167
C         17.07638        27.06649        -0.97806
C         18.44322        29.31477        -0.69555
C         17.20021        29.97922        -0.26678
C         18.50729        32.07371        -0.01529
C         17.24908        31.35804         0.03489
C         18.49693        33.54651         0.04902
C         17.26287        34.24261         0.47491
C         18.54523        36.39521         0.82956
C         17.27261        35.64639         0.68911
C         18.50322        37.87053         0.76992
C         17.25302        38.51988         0.80975
C         19.72391         4.16766        -0.56671
C         20.96888         6.31394        -0.47669
C         19.74611         5.59297        -0.48837
C         20.97587         7.69033        -0.40686
C         19.76602         8.44012        -0.30055
C         20.93954        10.63350        -0.36996
C         19.77437         9.86434        -0.19233
C         20.92945        12.01696        -0.30552
C         19.71205        12.75875        -0.14885
C         20.90334        14.94890        -0.37880
C         19.70217        14.18112        -0.14019
C         20.94996        16.27994        -0.16247
C         19.79687        17.01027         0.46498
C         20.88771        19.21053        -0.18677
C         19.73772        18.48613         0.12300
C         20.88455        20.61658        -0.34434
C         19.74782        21.36277        -0.09052
C         20.90985        23.56450        -0.21542
C         19.71166        22.81799        -0.16725
C         20.87892        24.93775        -0.38621
C         19.66737        25.64566        -0.54975
C         20.85776        27.81786        -0.65983
C         19.67968        27.08417        -0.73510
C         20.88776        29.22440        -0.53376
C         19.72838        29.97200        -0.40019
C         20.96981        32.09733         0.09023
C         19.72475        31.39434        -0.13080
C         21.03056        33.44231         0.26286
C         19.83689        34.27719         0.09643
C         21.00541        36.55834         0.19292
C         19.87504        35.70528         0.56946
C         20.92285        37.92396         0.32493
C         19.70704        38.57890         0.64092
O          9.46179         5.79799         1.03570
O          2.95616        21.12810        -0.60605
O         16.69845        22.90205        -1.74404
O          7.81525        25.41519        -0.36857
O          5.40565        18.70453         2.28493
O         13.12281        29.52717         2.07067
O         18.45579        28.76284        -2.07202
O          3.92676        32.26798         0.71118
O          1.88097        14.49111        -0.99338
O         17.89135        21.28863         1.48724
O          6.11865        24.14778         2.53634
O          2.49683         8.75013         1.85833
O          1.65624        22.94262         2.44822
O          3.91277        30.07334         1.73726
O         11.01494        19.81560        -1.08843
O          9.11288        10.31797        -1.74796
O          7.88465        27.63009         2.50870
O         10.01725        26.18938         2.36795
O         12.66598        18.94541         1.95502
O          7.09493        33.49623        -2.02991
O         10.80356        33.87941        -1.30382
O          7.33942        13.11212         1.79106
O          2.79534        27.64020         2.25085
O         19.12566        34.14015        -1.16765
O         11.00206        15.68245        -1.24397
O          1.37291        32.30249        -2.75746
O         11.56429         5.97017        -2.09633
O         19.38374        35.87954         1.93521
O         14.06157        36.00957         2.23106
O         14.88578        17.62700         2.02413
O          0.57864        10.39060         2.22175
H          0.99964         9.58994         2.61869
O          9.44098        35.50040         1.68100
H          9.38310        36.40770         2.04715
O          3.34519        14.65334         2.34762
H          4.13322        15.02821         2.79593
O         14.20731        22.41465        -1.91018
H         15.03509        22.32097        -2.43729
O          6.11162        12.23223        -1.53509
H          5.32654        11.81484        -1.94770
O          9.69954        39.56664         0.66967
H          9.53040        39.14547         1.53677
O         20.03500        16.96507         1.91809
H         19.26974        17.39706         2.35485
O          2.98931        28.87500        -1.59485
H          2.34386        28.99224        -2.32574
O         18.56978        10.45917         1.75870
H         17.78431        10.93540         2.10457
O         16.63589        27.02687        -2.37564
H         17.01363        27.83087        -2.80669
H          1.25976         2.28328        -0.91812
H         -0.91118         3.50429        -0.84073
H         -0.98109         5.93294        -0.41273
H         -0.87672         7.91041        -0.64320
H         -0.94505        10.27436        -0.18612
H         -1.04911        12.12391         0.67492
H         -1.12307        14.53945         0.51530
H         -1.07882        16.48441         0.32939
H         -1.11943        18.90486         0.50089
H         -1.15177        20.80424         0.67292
H         -1.17562        23.20905         0.80456
H         -1.12356        25.15134         0.98705
H         -1.13895        27.50700         0.41000
H         -0.96898        29.02399        -0.81223
H         -0.62745        30.86041        -2.42683
H         -0.58000        33.86963        -3.11360
H         -0.59548        36.35730        -2.72718
H          0.59839        38.38752        -2.20302
H          3.70725         2.29594        -0.79761
H          2.73337        39.56871        -1.70957
H          6.17703         2.30291        -0.74535
H          5.12898        39.49704        -1.34691
H          8.61257         2.30076        -0.80001
H          7.51066        39.48145        -0.95136
H         11.13827         2.28155        -0.83348
H         10.15972        39.06907        -1.26493
H         13.63896         2.32387        -0.66969
H         12.37131        39.53163         0.04220
H         16.07283         2.37446        -0.69505
H         14.81612        39.57310         0.61298
H         18.53236         2.38108        -0.66243
H         17.21963        39.61854         0.75982
H         20.68003         3.62518        -0.59798
H         21.91766         5.76037        -0.52619
H         21.94166         8.21290        -0.39214
H         21.89404        10.13502        -0.59010
H         21.88086        12.55093        -0.42485
H         21.79522        14.44120        -0.77157
H         21.89027        16.81577        -0.34882
H         21.84516        18.69298        -0.32708
H         21.81986        21.10814        -0.64480
H         21.87964        23.05924        -0.11599
H         21.83695        25.47146        -0.41505
H         21.82411        27.30108        -0.59797
H         21.87207        29.70033        -0.43424
H         21.89244        31.51165         0.19943
H         21.97058        33.92108         0.57309
H         21.90555        36.09363        -0.23417
H         21.80276        38.54074         0.09188
H         19.68325        39.67792         0.66170
