         404
 CSIRO Nanostructure Databank - Neutral Graphene Oxide Data Set
C          1.52452         3.73601         2.10600
C          0.28303         4.35752         2.00929
C          1.29205         6.38659         1.07506
C          0.16688         5.66685         1.52996
C          1.20159         7.77092         0.70098
C          0.07480         8.57548         0.94176
C          1.15922        10.55741        -0.04503
C          0.03727         9.90154         0.51768
C          1.05577        11.97359        -0.57466
C         -0.06943        12.78853         0.00508
C          1.18215        14.87071        -0.29917
C         -0.01512        14.13566         0.05708
C          1.20064        16.28337        -0.35755
C          0.03915        17.08669        -0.09048
C          1.19420        19.18993        -0.61521
C          0.05538        18.45951        -0.15830
C          1.23052        20.60223        -0.70157
C          0.03978        21.36350        -0.50801
C          1.24390        23.48096        -0.71144
C          0.04127        22.73450        -0.53372
C          1.22431        24.91775        -0.66626
C          0.00677        25.64906        -0.61182
C          1.20410        27.77020        -0.46215
C         -0.00108        27.02480        -0.53777
C          1.19531        29.21120        -0.36814
C         -0.01838        29.94873        -0.39120
C          1.17034        32.07089        -0.18834
C         -0.03081        31.32478        -0.30336
C          1.15934        33.51431        -0.11123
C         -0.04051        34.27760        -0.12332
C          1.13053        36.41437         0.06898
C         -0.05535        35.67015         0.00479
C          1.17612        37.83106         0.24626
C          3.96437         3.78143         1.81740
C          2.70275         4.40460         1.69326
C          3.73466         6.38856         0.67469
C          2.58532         5.73045         1.10834
C          3.63381         7.62337        -0.09981
C          2.31361         8.39245        -0.03211
C          3.59261        10.53201        -0.56934
C          2.35091         9.85063        -0.25048
C          3.58230        11.97852        -0.63292
C          2.37900        12.70743        -0.53227
C          3.62995        14.83422        -0.65404
C          2.38408        14.12765        -0.54366
C          3.63452        16.27454        -0.75699
C          2.42098        16.96098        -0.68850
C          3.68670        19.15970        -1.23182
C          2.36246        18.39930        -1.00871
C          3.66468        20.62457        -1.10592
C          2.47479        21.31876        -0.95648
C          3.66950        23.51892        -1.07461
C          2.46867        22.78506        -0.92481
C          3.68493        24.92895        -0.82975
C          2.45200        25.63878        -0.64802
C          3.67408        27.77652        -0.32602
C          2.44272        27.06440        -0.49026
C          3.66639        29.21337        -0.19297
C          2.42061        29.92610        -0.25382
C          3.63746        32.07562        -0.01453
C          2.40933        31.35789        -0.16567
C          3.60924        33.48864         0.11971
C          2.40254        34.19917         0.01628
C          3.66201        36.44763         0.20052
C          2.39778        35.68051        -0.05367
C          3.62869        37.88466         0.57503
C          2.34173        38.53237         0.47263
C          6.43246         3.87720         1.61595
C          5.16338         4.45486         1.49985
C          6.30222         6.51443         0.51090
C          5.05984         5.85812         1.04622
C          6.18691         7.70644        -0.37390
C          4.86299         8.37179        -0.53430
C          6.06876        10.55379        -0.81081
C          4.82426         9.84832        -0.65638
C          6.05591        11.95712        -0.86191
C          4.83228        12.68331        -0.72423
C          6.09574        14.81587        -0.30038
C          4.82973        14.10249        -0.67571
C          6.07818        16.30208        -0.55864
C          4.90504        17.00777        -0.81599
C          6.16213        19.18602        -0.84382
C          4.93544        18.43823        -0.96796
C          6.20250        20.61848        -1.00532
C          4.94639        21.28238        -1.55922
C          6.23073        23.53254        -1.24408
C          4.92669        22.80886        -1.43456
C          6.19948        25.01345        -1.00026
C          4.90550        25.66897        -0.72023
C          6.14241        27.69385         0.03815
C          4.88897        27.02941        -0.36311
C          6.12109        29.21722         0.18281
C          4.87406        29.95102        -0.06470
C          6.12551        32.09371         0.17714
C          4.89391        31.37180         0.01365
C          6.15412        33.48379         0.40656
C          4.85614        34.18850         0.51260
C          6.13100        36.42994         0.59554
C          4.85088        35.66566         0.64601
C          6.10001        37.82129         1.20788
C          4.77614        38.52393         0.97220
C          8.89880         3.92925         1.33821
C          7.62274         4.51714         1.15011
C          8.72351         6.37049        -0.07529
C          7.57233         5.77698         0.49312
C          8.65432         7.75098        -0.54934
C          7.43193         8.47511        -0.55785
C          8.58843        10.55292        -1.05116
C          7.35383         9.84449        -0.85285
C          8.60018        11.97197        -1.09110
C          7.29561        12.70936        -1.28753
C          8.54420        14.80522        -0.79470
C          7.34341        14.13632        -0.81171
C          8.56347        16.29153        -0.77144
C          7.34829        17.02811        -0.24025
C          8.59967        19.18078        -0.51786
C          7.36321        18.48708        -0.59818
C          8.62959        20.60313        -0.56285
C          7.41323        21.33305        -0.85429
C          8.65193        23.48651        -0.61906
C          7.46498        22.78212        -0.91628
C          8.71964        24.90251        -0.45964
C          7.50195        25.70587        -0.68115
C          8.63607        27.74226         0.16166
C          7.44465        27.06191        -0.13335
C          8.65651        29.16947         0.29792
C          7.42234        29.89498        -0.01544
C          8.66211        32.07736         0.44279
C          7.42242        31.41763         0.01779
C          8.62364        33.49140         0.66038
C          7.37472        34.18333         0.54754
C          8.63667        36.36599         0.99441
C          7.40842        35.65982         0.58782
C          8.62449        37.81173         0.97760
C          7.33754        38.59606         0.71554
C         11.32590         3.91130         1.24544
C         10.05671         4.48029         0.78834
C         11.11310         6.23289        -0.70591
C          9.97367         5.66734        -0.02588
C         11.02892         7.60560        -1.23601
C          9.82724         8.42438        -0.98068
C         11.04728        10.57499        -1.48971
C          9.80749         9.81469        -1.19169
C         11.09389        11.99799        -1.10988
C          9.82277        12.69482        -1.00717
C         11.02682        14.81874        -0.55179
C          9.79304        14.10484        -0.88345
C         11.10373        16.28101        -0.54344
C          9.85935        17.03404        -0.70425
C         11.01474        19.13557        -0.06064
C          9.83141        18.47162        -0.37966
C         11.03602        20.55131         0.00817
C          9.86703        21.26028        -0.33055
C         11.18172        23.44806        -0.16947
C          9.91526        22.72285        -0.52304
C         11.12242        24.88374         0.12671
C          9.89628        25.58514        -0.02868
C         11.05088        27.72444         0.53636
C          9.87973        27.01991         0.20470
C         11.08196        29.15372         0.63507
C          9.85680        29.88056         0.47427
C         11.08147        31.99479         0.88023
C          9.85926        31.32780         0.57384
C         11.03640        33.41980         1.25156
C          9.80611        34.19856         1.01319
C         11.06845        36.31609         1.51954
C          9.80413        35.61590         1.20652
C         11.06993        37.86309         1.39053
C          9.79502        38.51639         1.07824
C         13.74445         3.37926         1.09327
C         12.47975         3.83528         0.52810
C         13.52932         6.24669        -1.24681
C         12.31800         5.55798        -0.98225
C         13.59587         7.64759        -1.24206
C         12.36030         8.35424        -1.53858
C         13.61909        10.53585        -1.18078
C         12.38168         9.84359        -1.58903
C         13.59877        11.94294        -1.04033
C         12.32397        12.64281        -1.01980
C         13.56774        14.87123        -0.74390
C         12.33480        14.05593        -0.59083
C         13.54885        16.25940        -0.25413
C         12.29520        16.92217        -0.19010
C         13.54370        19.03967         0.48548
C         12.23496        18.33923         0.23686
C         13.56535        20.51097         0.46184
C         12.24416        21.23592         0.63690
C         13.52028        23.38841         0.55219
C         12.35189        22.70209         0.31599
C         13.54472        24.83099         0.58442
C         12.31461        25.53014         0.51075
C         13.61582        27.72937         0.74588
C         12.27511        26.96504         0.80107
C         13.56782        29.19694         0.61134
C         12.31652        29.87070         0.74368
C         13.57460        32.01560         0.90554
C         12.31595        31.30195         0.86959
C         13.61082        33.42790         1.05479
C         12.37498        34.15890         1.39309
C         13.52113        36.33371         1.09928
C         12.35625        35.63159         1.29084
C         13.51273        37.77838         0.89181
C         12.32225        38.48851         0.98013
C         16.04019         3.02180        -0.14638
C         14.91756         3.34456         0.45553
C         15.93121         6.15803        -0.58082
C         14.81680         5.52611        -1.38207
C         15.98544         7.64599        -0.62235
C         14.81941         8.36030        -0.97218
C         16.01217        10.48563        -0.56839
C         14.81042         9.79892        -0.91918
C         16.01857        11.91967        -0.52506
C         14.82396        12.62894        -0.75886
C         16.07975        14.81536        -0.32357
C         14.87252        14.10482        -0.77717
C         16.04955        16.19189        -0.06696
C         14.79143        16.93842        -0.01595
C         16.04988        18.99487         0.78142
C         14.80132        18.29677         0.31298
C         16.04238        20.48632         0.53099
C         14.78066        21.17287         0.55852
C         16.07904        23.39209         0.54049
C         14.77259        22.63781         0.77861
C         15.99539        24.82188         0.25303
C         14.80235        25.54558         0.51341
C         15.97656        27.68699        -0.07166
C         14.79852        26.96296         0.39418
C         15.97660        29.21678         0.02112
C         14.76265        29.91116         0.47521
C         16.05372        32.02164         0.59373
C         14.80446        31.32630         0.67098
C         16.05291        33.45258         0.67218
C         14.82101        34.13320         0.91456
C         16.04865        36.36309         0.61062
C         14.81377        35.60456         1.06603
C         15.90009        37.77309         0.18898
C         14.69370        38.43870         0.42116
C         18.45728         3.26449         0.24708
C         17.26616         3.88395        -0.44968
C         18.33825         6.15233         0.22346
C         17.10499         5.37037        -0.07911
C         18.35454         7.57257         0.13284
C         17.17551         8.32235        -0.25300
C         18.42271        10.45148         0.00796
C         17.19941         9.74855        -0.26797
C         18.45456        11.88588        -0.03182
C         17.25379        12.62953        -0.25817
C         18.51685        14.74426         0.03933
C         17.28243        14.04893        -0.17616
C         18.52910        16.17294         0.11501
C         17.29225        16.90171         0.15043
C         18.53390        19.02068         0.34675
C         17.31009        18.29401         0.35564
C         18.52460        20.46077         0.35973
C         17.26851        21.18162         0.41555
C         18.51252        23.29023         0.05915
C         17.30241        22.60967         0.27306
C         18.50979        24.72657        -0.29856
C         17.18782        25.50755        -0.25241
C         18.46975        27.63909        -0.18572
C         17.26272        26.96936        -0.14143
C         18.50521        29.09768         0.11656
C         17.26481        29.90747         0.15205
C         18.58834        31.98682         0.39280
C         17.28472        31.27041         0.41485
C         18.54442        33.51966         0.25242
C         17.24193        34.20703         0.35624
C         18.31880        36.29136        -0.43583
C         17.21101        35.58740         0.14384
C         18.19513        37.69440        -0.72123
C         16.99531        38.39547        -0.43429
C         19.47818         4.00005         0.71807
C         20.66902         6.16647         0.93535
C         19.49315         5.45389         0.61886
C         20.70263         7.54431         0.82905
C         19.56086         8.27578         0.42130
C         20.81517        10.43409         0.49555
C         19.60207         9.72079         0.30790
C         20.85920        11.80835         0.41802
C         19.68831        12.57273         0.17520
C         20.94814        14.73670         0.27908
C         19.72904        14.01220         0.15790
C         20.96555        16.11235         0.29315
C         19.76229        16.87141         0.22949
C         20.97948        19.05608         0.24992
C         19.76805        18.31046         0.26795
C         20.96950        20.43056         0.24736
C         19.75011        21.16954         0.26874
C         20.95366        23.37999         0.05772
C         19.75628        22.60865         0.12932
C         20.95418        24.75832        -0.07112
C         19.75548        25.50632        -0.23214
C         20.92264        27.68032        -0.57085
C         19.72160        26.92117        -0.30671
C         20.96384        29.03900        -0.55966
C         19.83844        29.82841        -0.03500
C         20.84609        32.04594        -0.60434
C         19.78655        31.30353        -0.14148
C         20.78482        33.45928        -0.76022
C         19.65998        34.19298        -0.43901
C         20.57030        36.32618        -1.37855
C         19.52545        35.60699        -0.76951
C         20.44405        37.69388        -1.65645
C         19.27883        38.37388        -1.33597
O          3.26224        36.17914        -1.17261
O          6.82376        36.30318        -0.66831
O          5.47095         7.59703        -1.64676
O          6.96514        25.68606        -2.06784
O         17.71628        24.96710        -1.51540
O          2.87659        18.67101        -2.35157
O          4.67529        34.87757         1.85770
O         15.55288        23.08261         1.90604
O         14.96628         4.57557        -2.13790
O         19.36818        29.36535         1.27749
O         11.71366        10.35065        -2.78103
O         11.06882        37.17667         2.68964
O          7.51442        30.66318        -1.25399
O         11.56542         7.74249        -2.58639
O          2.68007         7.57052        -1.20284
O         11.66281        33.66510         2.56758
O         10.86600        23.10698        -1.59393
O         12.45623         4.16853        -0.84107
O         12.70258        18.52439         1.62281
O         12.98802        27.31789         2.01797
O         11.67990        14.26279         0.68626
O         14.27131        14.67725        -2.00718
O          5.65046        23.34621        -2.59803
O         15.98167         5.64797         0.81529
O         18.88420        32.85804         1.52019
O         15.77510        36.12885         2.03679
O          5.83465         6.81508         1.88311
O          9.13469        16.79859        -2.00584
O         15.75381        28.53286        -1.27289
O          6.05625        28.37129         1.36236
O         11.96682        21.17701         2.08276
H         12.13498        20.24039         2.35498
O          6.25766        37.68512         2.64707
H          5.54254        37.10333         2.98308
O          0.73092        11.80757        -2.00173
H          0.75232        12.69753        -2.41345
O          4.98774        20.95868        -2.98139
H          5.45301        21.70894        -3.42447
O          7.52593        16.97045         1.24168
H          6.83597        17.54256         1.64171
O         17.52875         3.79142        -1.86489
H         16.66734         3.95530        -2.32810
O          7.39630        39.85974         1.36943
H          7.31703        39.68504         2.33181
O          7.14515        12.80533        -2.76489
H          7.94401        13.25637        -3.11440
O         16.02647        18.86690         2.26164
H         15.90032        17.91789         2.47588
O          6.15407        14.64015         1.17053
H          6.83277        15.28197         1.50192
H          1.60199         2.72000         2.51888
H         -0.61957         3.82261         2.33599
H         -0.82770         6.13250         1.49875
H         -0.80799         8.15568         1.44356
H         -0.89521        10.45824         0.67518
H         -1.01641        12.29100         0.25530
H         -0.89932        14.69055         0.40028
H         -0.89332        16.59628         0.21835
H         -0.85849        19.00036         0.12259
H         -0.91596        20.84513        -0.35701
H         -0.91076        23.25953        -0.38517
H         -0.95595        25.12430        -0.65808
H         -0.97034        27.53954        -0.52152
H         -0.97882        29.42572        -0.48457
H         -0.99857        31.84278        -0.32850
H         -1.00720        33.76205        -0.19813
H         -1.02212        36.19247         0.05361
H          0.22119        38.37810         0.23947
H          4.01273         2.74854         2.19417
H          2.29406        39.61912         0.63455
H          6.51892         2.86347         2.03566
H          4.72950        39.58697         1.25664
H          8.97966         3.02164         1.95401
H          7.23852        38.78568        -0.38352
H         11.33087         3.51160         2.27105
H          9.78106        39.60618         0.92453
H         13.73079         3.14355         2.17317
H         12.29560        39.53754         0.64840
H         16.12460         1.99175        -0.54537
H         14.62004        39.50685         0.16711
H         18.49547         2.16625         0.29892
H         16.91783        39.45454        -0.72237
H         20.35421         3.51178         1.17120
H         21.56234         5.61549         1.26167
H         21.63446         8.06592         1.08143
H         21.74860         9.89456         0.69937
H         21.82289        12.31085         0.57122
H         21.90317        14.19996         0.34922
H         21.93310        16.62385         0.38082
H         21.94572        18.53643         0.20772
H         21.92890        20.96235         0.20170
H         21.92478        22.87653         0.15522
H         21.91819        25.28520        -0.05060
H         21.81841        27.13133        -0.89457
H         21.87231        29.55696        -0.89668
H         21.76449        31.54084        -0.93430
H         21.65277        33.94963        -1.22065
H         21.51125        35.82331        -1.63767
H         21.27939        38.22796        -2.13005
H         19.18274        39.44684        -1.55459
