         300
 CSIRO Nanostructure Databank - Neutral Graphene Oxide Data Set
C         30.44061        31.87378         1.78056
C         30.33040        33.09782         1.57792
C         30.33260        36.00944         0.12408
C         30.33054        37.19058        -0.22453
C         30.40745        40.33880        -0.99519
C         30.20469        41.59511        -1.22244
C         32.68678        28.83691         1.75113
C         31.65555        29.53380         1.76854
C         32.70113        31.56498         1.17295
C         31.52893        30.95261         1.63905
C         32.74753        33.08497         1.32328
C         31.43636        33.73094         0.67798
C         32.71416        35.80345        -0.05476
C         31.48856        35.25620         0.75952
C         32.71951        37.32815        -0.30813
C         31.44712        38.18788        -0.06720
C         32.78099        40.22769        -1.07042
C         31.44752        39.45682        -0.87067
C         32.66516        41.70391        -0.64195
C         31.29325        42.42874        -0.66603
C         32.60120        44.44688        -0.57390
C         31.52321        43.87023        -0.80445
C         35.47041        27.18436         1.13513
C         35.24328        28.60852         1.39295
C         33.93687        29.26368         1.12111
C         35.20326        31.52045         0.48133
C         33.90942        30.78682         0.82431
C         35.26043        33.03274         0.42473
C         34.05533        33.80910         0.88303
C         35.30758        35.89662        -0.01480
C         34.04871        35.25038         0.46344
C         35.26155        37.39929         0.19880
C         34.00901        38.06872        -0.36049
C         35.20908        40.31579        -0.08457
C         33.92921        39.56869        -0.28404
C         35.26991        41.77874        -0.45638
C         33.95873        42.48990        -0.72191
C         35.10875        44.63362        -0.18204
C         33.94889        43.97038        -0.49887
C         35.31628        46.04608        -0.06289
C         37.62486        27.22566        -0.04232
C         36.37452        26.58982         0.54766
C         37.79798        28.47638         0.93205
C         36.53846        29.35091         1.12618
C         37.80051        31.50945         0.36573
C         36.51121        30.73479         0.51118
C         37.76891        32.98942        -0.00587
C         36.53646        33.78282         0.18652
C         37.73062        35.99176        -0.55882
C         36.52480        35.18632        -0.02861
C         37.79871        37.43552        -0.02927
C         36.53615        38.17037        -0.05074
C         37.69759        40.32585         0.30294
C         36.48347        39.54556        -0.00280
C         37.75991        41.80325        -0.11796
C         36.44317        42.56684        -0.00091
C         37.62028        44.73399         0.43530
C         36.38876        43.94369         0.05596
C         37.64016        46.27597         0.34460
C         36.27208        46.78593         0.19159
C         40.10344        24.30810        -0.23257
C         39.05943        25.03854        -0.04168
C         40.20527        27.06854         0.19612
C         38.87177        26.38778         0.07972
C         40.18260        28.58561        -0.11148
C         39.07083        29.31754         0.66520
C         40.46595        31.57899         0.53351
C         39.11274        30.82499         0.70575
C         40.32159        33.10510         0.30579
C         39.06345        33.72900        -0.24665
C         40.30169        35.92777         0.09843
C         39.13964        35.24212        -0.63247
C         40.25239        37.38587         0.43010
C         38.98093        38.10988         0.18430
C         40.28830        40.31135         0.22451
C         38.99786        39.57084         0.44058
C         40.23732        41.81987        -0.07678
C         39.00202        42.47670         0.58283
C         40.27663        44.86461         0.42038
C         38.95153        44.03552         0.56065
C         40.07401        46.10203        -0.56353
C         38.88829        46.99144        -0.01661
C         40.03739        49.10448        -0.46069
C         39.02210        48.38051        -0.46960
C         42.65767        24.25638        -0.71722
C         41.40663        24.76359        -0.30996
C         42.65923        27.02872        -0.71093
C         41.47783        26.27956        -0.09549
C         42.67255        28.54704        -0.67312
C         41.58182        29.17848         0.13211
C         42.83545        31.64785        -0.42933
C         41.43545        31.02446        -0.56403
C         42.88107        32.97079        -0.00409
C         41.63704        33.80306         0.21236
C         42.75692        35.98960         0.84459
C         41.69680        35.30722        -0.11332
C         42.84369        37.47398         0.50778
C         41.52785        38.20986         0.78582
C         42.74574        40.32469        -0.13085
C         41.46932        39.63093         0.22186
C         42.76673        41.82385        -0.12300
C         41.52059        42.53748         0.42643
C         42.71132        44.70176        -0.46808
C         41.45694        44.00093        -0.05449
C         42.76638        46.20124        -0.76300
C         41.39061        46.84009        -0.83850
C         42.60282        49.06680        -0.21817
C         41.37137        48.78480        -0.83674
C         43.72402        24.95958        -0.75746
C         45.18318        27.09681        -0.44293
C         43.96579        26.31972        -0.86000
C         45.27022        28.52398        -1.08410
C         43.96692        29.30081        -0.92698
C         45.22213        31.33419        -1.06126
C         44.00275        30.79181        -0.75826
C         45.38580        33.44226        -0.42846
C         44.11249        33.78926         0.22116
C         45.34505        35.96656         0.31551
C         44.07731        35.23213         0.66854
C         45.34079        37.45222         0.21071
C         44.02014        38.14599         0.36941
C         45.37629        40.31240        -0.11904
C         44.05677        39.56928        -0.06955
C         45.39965        41.83355        -0.34374
C         44.07475        42.56184         0.10808
C         45.20743        44.74571         0.19213
C         44.07784        44.00395        -0.53272
C         45.06449        46.23931         0.47192
C         43.83873        46.95365         0.11826
C         43.61477        48.30497        -0.05591
C         47.60773        27.12065        -0.58032
C         46.54174        26.51147        -0.62556
C         48.02900        28.48407        -1.00512
C         46.64050        29.24016        -1.17117
C         47.70363        31.52950        -0.26603
C         46.58631        30.73031        -1.03870
C         47.83274        33.08853        -0.63217
C         46.62245        33.83176        -0.02723
C         47.91975        35.95687         0.49574
C         46.63596        35.20675         0.55543
C         47.87164        37.37795        -0.07070
C         46.66165        38.17872         0.54903
C         47.86233        40.36045         0.18138
C         46.68844        39.66429         0.19480
C         47.91845        41.84952        -0.00534
C         46.60363        42.53659         0.36349
C         47.79602        44.77776         0.84561
C         46.61504        44.08379         0.01384
C         47.48332        46.23490         0.62083
C         46.40446        46.83080         0.60901
C         50.31776        28.74731         0.02158
C         48.91458        29.21221         0.03046
C         50.37696        31.46112        -0.39135
C         49.03917        30.75448        -0.36601
C         50.46138        33.02438        -0.53549
C         49.13947        33.66941        -0.07379
C         50.47912        35.86404         0.31327
C         49.17180        35.11506         0.35000
C         50.47648        37.36997         0.34578
C         49.19956        38.15051         0.07312
C         50.41739        40.35902         0.64746
C         49.18243        39.64667         0.13942
C         50.39142        41.85798         0.77847
C         49.18901        42.62400         0.24831
C         50.32034        44.54914         1.24571
C         49.15800        44.26903         0.34799
C         51.42441        29.25711        -0.17327
C         52.83779        31.50578        -0.31117
C         51.66661        30.69534         0.17934
C         52.83719        32.73012        -0.11957
C         51.71566        33.62602         0.17558
C         52.81216        36.00536         0.83511
C         51.72311        35.03572         0.65711
C         52.81101        37.23784         0.85027
C         51.64058        38.16429         1.04643
C         52.81717        40.45110         1.08414
C         51.76099        39.56578         0.44045
C         52.74896        41.69890         1.16442
C         51.68150        42.60496         1.09171
C         51.43390        43.96855         1.30614
O         48.77144        42.26490        -1.09981
O         34.29571        34.87040         1.86178
O         33.72192        29.74188        -0.21063
O         39.26899        30.03326         1.92506
O         31.88795        41.91629         0.56143
O         47.30267        35.63520         1.79017
O         38.21131        39.95068         1.61664
O         41.36950        47.80539        -1.91146
O         49.40597        38.97683        -1.13173
O         44.47756        28.81715        -2.23137
O         41.78786        44.09968        -1.46235
O         37.19292        30.75578        -0.75634
O         38.18484        44.40980         1.75384
O         33.40081        37.58475        -1.59377
O         49.13695        34.01823         1.31696
O         51.57690        33.95410         1.58094
O         40.99347        30.91504        -1.76273
O         45.31607        36.61188        -0.99075
O         44.88124        45.19587         1.52420
O         40.86670        33.76812         1.48094
O         41.10785        26.67738         1.25865
O         44.80824        39.66680        -1.32466
O         34.82709        42.08027        -1.81468
O         49.79123        30.90115        -1.59632
O         37.33678        36.29450        -1.96732
O         38.51454        46.84774         1.36142
O         50.14467        40.95888         1.93298
O         42.62150        41.13035        -1.37850
O         46.81318        30.10838        -2.34171
O         37.92328        41.85275        -1.50057
O         42.23016        27.84815        -1.85048
O         45.25979        32.63686        -1.55493
O         44.32299        34.18610         1.62750
O         41.58935        38.36858         2.18878
O         34.98189        32.21965        -0.77782
O         39.98951        36.32484         1.44035
O         50.79606        36.64113        -0.88273
O         35.98371        29.22541         2.48004
O         34.25106        40.09628         1.02362
O         38.43233        33.04458        -1.34670
O         36.94676        35.02089        -2.58498
H         36.58359        35.32621        -3.45175
O         51.61265        30.81192         1.58056
H         52.47603        30.56111         1.96827
O         45.00239        27.36561         0.96402
H         45.04453        26.51896         1.45731
O         39.80185        28.64263        -1.48224
H         40.09326        29.50933        -1.88363
O         41.93677        29.17162         1.44768
H         41.17201        29.43957         2.01798
O         50.66132        33.32561        -1.91202
H         49.99903        32.81829        -2.43663
O         32.66578        33.26658         2.74840
H         32.95141        34.18916         2.95501
O         43.36722        46.29812        -2.07270
H         42.96782        47.07839        -2.52647
O         40.14506        42.06118        -1.47558
H         40.73132        41.43391        -1.95663
O         42.39842        35.87302         2.21105
H         41.94202        36.72115         2.49606
O         47.28132        31.52531         1.10043
H         47.42681        30.62509         1.48486
O         31.25808        33.26341        -0.61613
H         30.68711        33.88345        -1.11709
O         40.66747        45.34814         1.70058
H         39.85443        45.68167         2.15636
O         44.16359        42.72460         1.53255
H         43.26735        42.78439         1.95101
O         38.08958        27.82412         2.17782
H         37.51118        28.21229         2.87567
O         46.79631        38.19441         1.98260
H         46.80902        37.25909         2.31361
O         31.58858        35.66682         2.10162
H         30.89150        35.20496         2.61753
O         39.04396        42.13483         1.96608
H         38.43167        42.74020         2.44989
O         48.32242        29.07077         1.32161
H         49.02395        29.12144         2.00466
O         48.69541        28.42327        -2.23974
H         48.37597        29.15571        -2.81464
O         31.49568        38.58015         1.30067
H         30.81587        39.26515         1.47265
O         32.59151        35.20111        -1.35899
H         33.06339        35.77925        -2.00249
O         52.00931        39.49090        -0.93676
H         52.52218        38.68098        -1.14444
O         47.67202        37.17759        -1.47099
H         48.08360        37.93293        -1.95227
O         51.33979        38.30810         2.41624
H         51.46893        37.45805         2.88484
O         45.65044        41.97636        -1.74367
H         45.15474        41.25811        -2.20776
O         41.17681        31.41708         1.76162
H         41.21593        32.28762         2.23382
O         47.69578        44.52085         2.21857
H         46.82256        44.83999         2.53817
O         46.97017        44.25465        -1.35693
H         46.38225        43.68169        -1.91420
O         35.05222        37.51013         1.64091
H         35.88882        37.29301         2.10427
O         42.15487        35.54386        -1.44257
H         41.40518        35.36881        -2.06338
O         37.37636        27.63797        -1.35569
H         37.65220        26.95247        -1.99661
O         49.48259        44.78867        -0.91049
H         48.67952        44.72150        -1.48660
O         39.55567        35.24007        -2.00843
H         38.89601        34.69238        -2.50414
O         46.61181        42.30560         1.76973
H         45.75622        42.59123         2.16903
O         39.56006        45.62117        -1.80901
H         40.24250        45.04428        -2.22788
O         44.39158        43.97461        -1.92246
H         43.56526        43.78926        -2.42013
O         47.88872        33.23660        -2.04840
H         46.99546        33.04520        -2.41852
O         33.10790        40.20231        -2.46050
H         33.20321        39.26204        -2.73364
O         41.60316        42.49981         1.85387
H         40.70945        42.29068         2.24429
