         640
 CSIRO Nanostructure Databank - Neutral Graphene Oxide Data Set
C         22.98602        27.47440        -1.04071
C         22.96836        28.83027        -0.72429
C         22.97169        31.64223         0.22080
C         22.99962        32.99654         0.54204
C         23.03193        35.98399         0.98856
C         23.07536        37.28575         1.31889
C         23.15752        40.18526         2.13435
C         23.10153        41.52951         1.91950
C         23.03232        44.47096         1.27850
C         22.99105        45.83649         1.17697
C         25.35281        24.61945        -1.31291
C         24.22010        25.34444        -1.41729
C         25.41914        27.43053        -0.80907
C         24.19059        26.75311        -1.07008
C         25.38645        28.82451        -0.55676
C         24.16860        29.52917        -0.46149
C         25.37063        31.69022        -0.08194
C         24.16268        30.95953        -0.09383
C         25.41959        33.07344         0.21364
C         24.20191        33.72080         0.56103
C         25.56547        35.81198         1.16232
C         24.22351        35.10686         1.08544
C         25.55900        37.27050         1.33077
C         24.31933        37.91627         1.91889
C         25.53726        40.11390         1.58610
C         24.32694        39.42409         1.80170
C         25.54126        41.56054         1.47071
C         24.20872        42.20381         1.14767
C         25.46890        44.37963         1.03133
C         24.24728        43.71762         1.17973
C         25.48954        45.80346         0.66931
C         24.14694        46.58252         0.69784
C         25.42826        48.68167         0.64269
C         24.24225        48.04463         0.81656
C         27.98744        23.05492        -1.06106
C         27.86158        24.51002        -1.25326
C         26.61459        25.20078        -0.72122
C         27.90130        27.40194        -0.82703
C         26.66579        26.71070        -0.82860
C         27.92117        28.84084        -0.71806
C         26.67190        29.53209        -0.22917
C         27.82629        31.77503        -0.84258
C         26.58436        30.99906        -0.57336
C         27.87025        33.18304        -0.37419
C         26.68277        33.80650         0.13780
C         27.93130        35.92217         0.40287
C         26.75025        35.15975         0.56286
C         27.96306        37.32137         0.73714
C         26.73476        37.98336         1.15968
C         28.02664        40.06902         1.55645
C         26.74993        39.39141         1.41863
C         28.01808        41.61439         1.63711
C         26.72161        42.28236         1.43079
C         27.94778        44.42064         1.11322
C         26.73283        43.70297         1.17088
C         27.92669        45.85409         1.00849
C         26.73686        46.56695         0.80661
C         27.90762        48.71086         0.42497
C         26.70432        47.99187         0.60136
C         27.97155        50.02107        -0.13761
C         30.44173        23.11583        -1.36246
C         29.17691        22.42097        -1.20115
C         30.43912        24.55617        -1.29124
C         29.15799        25.28793        -1.33504
C         30.36842        27.42532        -0.92232
C         29.14802        26.72248        -0.99663
C         30.36623        28.85959        -0.88579
C         29.10697        29.54838        -0.83289
C         30.37447        31.73484        -0.74174
C         29.12084        31.02766        -1.16909
C         30.35207        33.14703        -0.61438
C         29.09824        33.85591        -0.37128
C         30.32327        35.98615        -0.18512
C         29.14361        35.26759        -0.04735
C         30.32256        37.48913        -0.11341
C         29.14765        38.06573         0.62046
C         30.45438        40.14042         1.03085
C         29.24484        39.41934         1.05664
C         30.48193        41.58013         1.22824
C         29.25889        42.32016         1.31978
C         30.45996        44.44440         1.15378
C         29.23029        43.73134         1.19578
C         30.47095        45.88425         1.08695
C         29.18401        46.59205         1.16332
C         30.45236        48.72526         0.45766
C         29.17776        48.10066         0.83266
C         30.44150        50.03987        -0.08892
C         29.16830        50.65698        -0.36298
C         32.91491        20.29587        -1.17385
C         31.72597        20.96503        -1.31449
C         32.94324        23.10589        -1.36806
C         31.65484        22.39316        -1.36976
C         32.91385        24.60789        -1.17476
C         31.61212        25.28647        -1.08886
C         32.84370        27.43954        -0.88150
C         31.61801        26.71719        -0.94280
C         32.83651        28.87554        -0.88472
C         31.58915        29.57714        -0.88593
C         32.82574        31.73287        -0.76753
C         31.58770        31.02322        -0.80030
C         32.80845        33.15876        -0.73324
C         31.57169        33.85048        -0.64825
C         32.82372        35.99623        -0.38957
C         31.53644        35.34416        -0.80448
C         32.81770        37.32680         0.10045
C         31.63341        38.07275         0.35482
C         32.95271        40.04651         1.07121
C         31.69438        39.41384         0.78600
C         33.00598        41.57234         0.92498
C         31.70012        42.29296         1.17078
C         32.92747        44.45633         1.12188
C         31.70574        43.72240         1.16288
C         32.93748        45.94041         1.37288
C         31.65136        46.62147         1.00158
C         32.90818        48.70152         0.44714
C         31.66429        48.02476         0.67089
C         32.90760        50.06988         0.04606
C         31.67334        50.71457        -0.30002
C         32.88788        52.73330        -0.96666
C         31.74399        52.01259        -0.94255
C         35.44904        18.84780        -0.69205
C         35.40925        20.25728        -0.78661
C         34.17316        20.97839        -0.99349
C         35.39626        23.12065        -0.80326
C         34.18198        22.37602        -1.03389
C         35.36882        24.52791        -0.68764
C         34.07409        25.26848        -0.46963
C         35.29247        27.46774        -0.72695
C         34.10293        26.75661        -0.76253
C         35.31775        28.90047        -0.84736
C         34.06691        29.59684        -0.86924
C         35.29751        31.74443        -0.85965
C         34.06759        31.02979        -0.83686
C         35.28387        33.17577        -0.82144
C         34.05054        33.87584        -0.75294
C         35.28341        36.00676        -0.46292
C         34.03844        35.30035        -0.54527
C         35.27295        37.35546        -0.07068
C         34.06574        37.95437         0.36178
C         35.42584        39.71935         1.31673
C         34.10583        39.24789         0.95188
C         35.42955        41.85017         1.79427
C         34.19412        42.38439         1.42067
C         35.41971        44.50605         1.15761
C         34.17893        43.78511         1.19548
C         35.40948        45.92698         0.92485
C         34.18895        46.63121         0.90033
C         35.38911        48.70486         0.35335
C         34.16376        48.01061         0.58426
C         35.37388        50.11047         0.05244
C         34.14089        50.78022        -0.07374
C         35.38340        52.90573        -0.64867
C         34.09326        52.28511        -0.17623
C         35.41767        54.30916        -0.89783
C         37.87287        18.84278        -0.35353
C         36.63354        18.16547        -0.46726
C         37.88553        20.26632        -0.46965
C         36.63395        20.99011        -0.64802
C         37.88402        23.11082        -0.19316
C         36.61573        22.39628        -0.62699
C         37.89696        24.58196        -0.52012
C         36.59417        25.27055        -0.40825
C         37.82121        27.48903        -0.71495
C         36.56592        26.77200        -0.45065
C         37.81065        28.86615        -0.88209
C         36.55136        29.60031        -0.87924
C         37.76508        31.75670        -0.98245
C         36.55083        31.03761        -0.92193
C         37.76474        33.17970        -0.88504
C         36.52807        33.89406        -0.80199
C         37.76331        36.01386        -0.56611
C         36.53124        35.31356        -0.67029
C         37.78891        37.48463        -0.43758
C         36.48398        38.18984        -0.17740
C         37.75613        40.36043         0.40353
C         36.56025        39.42654         0.61954
C         37.90498        41.54222         1.42486
C         36.66888        42.42984         1.49381
C         37.90269        44.50704         0.99319
C         36.65783        43.80785         1.17831
C         37.88885        45.91047         0.78487
C         36.64338        46.61565         0.71722
C         37.86858        48.72112         0.31049
C         36.63127        48.01502         0.46092
C         37.85360        50.12337         0.00481
C         36.61372        50.80386        -0.16103
C         37.82739        52.81466        -0.94168
C         36.60343        52.17710        -0.60572
C         37.80001        54.16679        -1.62391
C         36.55803        54.94414        -1.29640
C         40.34504        16.05223         0.16705
C         39.15917        16.71796        -0.03611
C         40.33252        18.86964        -0.05580
C         39.11570        18.13906        -0.14986
C         40.33723        20.29550        -0.21117
C         39.11421        20.96116        -0.43607
C         40.37197        23.16599        -0.45596
C         39.10298        22.42384        -0.79165
C         40.34814        24.57130        -0.53430
C         39.06500        25.26163        -0.67739
C         40.33928        27.45171        -0.71399
C         39.06834        26.71762        -1.07142
C         40.29367        28.90477        -0.82084
C         39.07787        29.57027        -0.98284
C         40.28198        31.77579        -0.83401
C         39.05640        31.04160        -1.31773
C         40.26128        33.17860        -0.73530
C         38.99560        33.90656        -0.76725
C         40.24591        36.00983        -0.14902
C         38.97482        35.29835        -0.55807
C         40.24075        37.50613        -0.28540
C         39.05058        38.20391        -0.10652
C         40.30889        40.23330         0.49876
C         39.05038        39.58229         0.25491
C         40.33107        41.65670         0.85196
C         39.14663        42.34938         1.07597
C         40.35418        44.50018         0.85072
C         39.12913        43.78415         1.00543
C         40.35338        45.92010         0.72098
C         39.11969        46.62002         0.64939
C         40.34267        48.73878         0.30234
C         39.10445        48.03387         0.42485
C         40.33053        50.14795         0.05813
C         39.08071        50.82317        -0.13405
C         40.28503        52.87865        -0.73299
C         39.07211        52.18746        -0.61740
C         40.34877        54.12329        -1.56508
C         39.08018        54.98744        -1.37226
C         40.39224        56.80276        -2.44136
C         39.18809        56.22342        -2.24279
C         42.79925        16.08965         0.50337
C         41.57077        16.76589         0.27934
C         42.78905        18.91416         0.29500
C         41.56625        18.18478         0.16810
C         42.78403        20.34860         0.17889
C         41.57093        21.03060        -0.10085
C         42.78589        23.20611        -0.02098
C         41.57524        22.46694        -0.21198
C         42.77512        24.63446        -0.13723
C         41.55061        25.31494        -0.42132
C         42.84352        27.47174        -0.72440
C         41.52190        26.76082        -0.54890
C         42.75055        28.95499        -0.45818
C         41.53813        29.63520        -0.65473
C         42.68594        31.81282        -0.37526
C         41.49958        31.08288        -0.63034
C         42.71356        33.22188        -0.48191
C         41.48635        33.88653        -0.64644
C         42.74365        36.09471        -0.81254
C         41.45352        35.35671        -0.76120
C         42.79203        37.52497        -0.46144
C         41.49680        38.29093        -0.54137
C         42.83382        40.17169         0.61000
C         41.50445        39.58963         0.21148
C         42.80949        41.67879         0.67830
C         41.58642        42.36741         0.78404
C         42.82951        44.49731         0.82491
C         41.59186        43.79185         0.82204
C         42.82555        45.93847         0.73784
C         41.59917        46.63064         0.63112
C         42.81266        48.76946         0.33049
C         41.58458        48.05331         0.42744
C         42.79851        50.19848         0.15709
C         41.55635        50.85829         0.00803
C         42.79375        53.03032        -0.40136
C         41.49757        52.35999        -0.01738
C         42.77719        54.35411        -0.81940
C         41.58775        54.95922        -1.33355
C         42.86723        56.94632        -1.99589
C         41.61004        56.23561        -1.88169
C         43.97332        16.79581         0.63601
C         45.22335        18.96159         0.73506
C         43.99934        18.21714         0.54781
C         45.21326        20.38588         0.66678
C         43.99615        21.08343         0.36770
C         45.20046        23.24430         0.52251
C         43.99529        22.50878         0.28076
C         45.17708        24.67263         0.47710
C         43.97906        25.37311         0.11455
C         45.13916        27.54004         0.29095
C         44.00474        26.79875        -0.02573
C         45.15834        28.97097         0.15275
C         43.94021        29.64909        -0.11275
C         45.22414        31.87595         0.10494
C         43.88548        31.09652         0.05476
C         45.23827        33.26901        -0.33991
C         43.98226        33.96410        -0.50271
C         45.24174        36.07992        -1.08102
C         43.99090        35.32603        -0.74081
C         45.24858        37.51174        -0.59592
C         43.99818        38.18891        -0.39902
C         45.28113        40.31651         0.08104
C         43.96282        39.70118        -0.32427
C         45.28466        41.61095         0.57709
C         44.04219        42.36972         0.73618
C         45.28587        44.55765         1.27373
C         44.04890        43.77955         0.86771
C         45.30332        45.97147         0.73819
C         44.06826        46.65691         0.63322
C         45.28633        48.78787         0.33673
C         44.05292        48.07122         0.41845
C         45.27760        50.21960         0.23558
C         44.03657        50.92799         0.14069
C         45.24549        53.06852        -0.16228
C         44.03451        52.35503        -0.09906
C         45.27790        54.45999        -0.49133
C         43.98009        55.23886        -0.57581
C         44.00729        56.45054        -1.46781
C         47.60721        19.01226         1.24192
C         46.44667        18.30393         1.01252
C         47.62448        20.42947         1.21122
C         46.41753        21.11894         0.90709
C         47.59861        23.28797         1.12194
C         46.40888        22.55521         0.84969
C         47.54620        24.71035         1.07501
C         46.36644        25.39459         0.77835
C         47.61809        27.59528         0.72236
C         46.30581        26.89273         0.99910
C         47.64665        28.96006         0.36295
C         46.40098        29.69547         0.22758
C         47.69239        31.79835        -0.09418
C         46.45507        31.08706         0.04842
C         47.69772        33.18690        -0.29338
C         46.47948        33.92579        -0.49424
C         47.71017        36.04746        -0.92770
C         46.51393        35.34352        -0.76704
C         47.70192        37.50417        -0.91170
C         46.46941        38.19921        -0.56478
C         47.73351        40.28749        -0.10170
C         46.49842        39.59798        -0.18761
C         47.78887        41.64789         0.31064
C         46.56844        42.28725         0.81848
C         47.81026        44.52425         0.68831
C         46.59279        43.79479         1.07321
C         47.77955        45.93857         0.56039
C         46.52431        46.65674         0.57721
C         47.75717        48.79390         0.29840
C         46.52192        48.08061         0.38844
C         47.74324        50.22143         0.21888
C         46.51862        50.91665         0.21571
C         47.77292        53.08622        -0.10093
C         46.50480        52.41593         0.35602
C         47.72912        54.40648        -0.48660
C         46.49772        55.10828        -0.61143
C         50.05277        20.50291         1.78641
C         48.83773        21.16727         1.47754
C         50.03947        23.29655         1.69657
C         48.83065        22.59247         1.44537
C         50.01171        24.77317         1.74534
C         48.75068        25.49791         1.41688
C         50.06314        27.52565         0.70279
C         48.82546        26.90440         0.93641
C         50.11650        28.88637         0.28960
C         48.88771        29.62264         0.17188
C         50.14693        31.66563        -0.38303
C         48.93443        31.04119        -0.08211
C         50.21136        33.08328        -0.61430
C         49.01042        33.93635        -0.19888
C         50.04280        35.65817        -1.62725
C         48.94936        35.26101        -0.92990
C         50.11610        37.78119        -1.52236
C         48.89045        38.28064        -0.97695
C         50.18960        40.27945        -0.40035
C         48.94668        39.62159        -0.47908
C         50.21812        41.68139        -0.05464
C         48.99966        42.36634         0.28642
C         50.23270        44.51510         0.28099
C         49.01145        43.79970         0.45942
C         50.23649        45.94212         0.30428
C         49.00105        46.65469         0.38590
C         50.23896        48.78923         0.26075
C         48.99967        48.08304         0.31367
C         50.23726        50.22516         0.21499
C         49.00634        50.93957         0.16793
C         50.25846        53.02846        -0.00873
C         49.02138        52.35289         0.02372
C         51.22545        21.19623         1.99241
C         52.52796        23.32444         2.00764
C         51.26517        22.61653         1.92581
C         52.58279        24.78331         1.81676
C         51.30281        25.53678         1.63617
C         52.60298        27.48646         0.71716
C         51.32231        26.69575         0.65628
C         52.60382        28.84027         0.28047
C         51.36454        29.50556         0.00742
C         52.64295        31.56886        -0.66540
C         51.35017        30.81261        -0.73539
C         52.65081        32.91745        -1.33865
C         51.37026        33.66178        -1.08472
C         52.64666        35.90790        -1.46764
C         51.37819        35.05998        -1.54235
C         52.67711        37.48072        -1.56053
C         51.37910        38.20845        -1.13515
C         52.65948        40.20223        -0.49172
C         51.41773        39.55435        -0.63603
C         52.66894        41.70491        -0.59765
C         51.42334        42.39204        -0.11312
C         52.68810        44.52086        -0.02940
C         51.45173        43.80441         0.05190
C         52.70335        45.93222         0.09414
C         51.46935        46.65326         0.20548
C         52.72737        48.78451         0.21354
C         51.47441        48.07718         0.22629
C         52.72970        50.20601         0.25876
C         51.47680        50.93279         0.19982
C         51.45504        52.33888         0.09786
C         54.97353        23.32611         1.92262
C         53.76243        22.65881         2.08162
C         55.04587        24.70538         1.56639
C         53.84417        25.43146         1.42052
C         55.04754        27.52600         0.88838
C         53.82025        26.81625         1.00836
C         55.07523        28.86263         0.40196
C         53.84703        29.52749         0.10939
C         55.07251        31.57782        -0.56372
C         53.84874        30.91209        -0.36342
C         55.15502        33.00216        -1.04915
C         53.85811        33.77732        -1.00367
C         55.12117        35.89705        -0.79222
C         53.87005        35.15158        -1.01787
C         55.10742        37.33565        -0.71495
C         53.89259        38.07581        -0.84837
C         55.08816        40.10161        -0.01277
C         53.86076        39.44452        -0.50507
C         55.11532        41.62998         0.15342
C         53.90952        42.39629        -0.12819
C         55.18861        44.49519        -0.04204
C         53.93368        43.78743        -0.08586
C         55.16781        45.90541        -0.03621
C         53.95132        46.63462         0.07767
C         55.20398        48.78533         0.22158
C         53.96616        48.06878         0.16457
C         55.16587        50.19250         0.35140
C         53.96784        50.88271         0.35114
C         57.54666        24.71509         1.41553
C         56.31639        25.37635         1.39931
C         57.62525        27.53753         0.90126
C         56.29460        26.84035         1.25376
C         57.55575        28.84756         0.23504
C         56.33487        29.49697         0.09277
C         57.59815        31.58297        -0.49244
C         56.33309        30.78166        -0.69117
C         57.59014        32.98138        -0.47475
C         56.27681        33.71282        -0.29640
C         57.56837        35.87262        -0.43600
C         56.31927        35.19566        -0.58558
C         57.58043        37.29813        -0.34667
C         56.34688        38.02222        -0.41997
C         57.58350        40.13196         0.05650
C         56.37202        39.41780        -0.16819
C         57.60303        41.57333         0.19336
C         56.40310        42.32608         0.11870
C         57.67994        44.40912         0.08120
C         56.42486        43.74171         0.00264
C         57.74624        45.85907        -0.14013
C         56.42172        46.65449        -0.20759
C         57.71041        48.70680         0.22338
C         56.46484        48.08679         0.10101
C         58.75582        25.34548         1.07106
C         59.94880        27.28824         0.09685
C         58.80859        26.69403         0.69352
C         59.95057        28.62538        -0.28448
C         58.78986        29.43146        -0.22441
C         60.03292        31.58609        -0.53321
C         58.82130        30.85902        -0.46645
C         60.02498        32.96883        -0.54990
C         58.81301        33.69771        -0.46346
C         59.99807        35.86060        -0.16738
C         58.79688        35.14492        -0.35745
C         60.00456        37.23581        -0.03556
C         58.80706        37.98713        -0.10830
C         60.02496        40.13040         0.27862
C         58.81630        39.41778         0.06827
C         60.04124        41.50228         0.41772
C         58.84679        42.26221         0.34454
C         60.07881        44.44783         0.59108
C         58.86941        43.70369         0.35509
C         60.10931        45.82130         0.58681
C         58.95329        46.59030         0.25404
C         58.91775        47.98374         0.30623
O         49.16314        25.31754         2.82127
O         52.19510        35.31200        -2.74760
O         35.44788        40.59631         2.39754
O         29.15334        47.60412         2.21860
O         28.14392        40.78743         2.83349
O         24.72893        46.08213        -0.54890
O         36.52167        26.06242         0.88335
O         37.07402        38.20496        -1.52434
O         33.17880        24.05807        -2.49090
O         51.95623        25.66824         2.90479
O         41.89742        35.87109        -2.05803
O         46.78491        42.84658         2.17574
O         24.96757        35.14398         2.35963
O         26.86030        31.46260        -1.93356
O         57.09804        27.54223         2.26218
O         44.43002        31.61382         1.31245
O         49.98383        36.76565        -2.48193
O         57.16371        46.28200        -1.41487
O         54.93475        40.71883         1.31551
O         28.32600        24.98848        -2.53834
O         37.96162        22.98679         1.25280
H         37.30931        23.60589         1.64409
O         41.31305        52.76393         1.40814
H         41.87949        52.17489         1.95185
O         55.51418        32.95095        -2.47025
H         54.67155        32.74302        -2.94939
O         52.74617        32.66845        -2.80866
H         52.55870        33.54986        -3.22581
O         46.05697        27.07561         2.43516
H         45.26309        26.55114         2.67092
O         39.01276        55.41307         0.00334
H         39.83384        55.90663         0.21204
O         38.94219        22.50103        -2.24033
H         39.74102        22.11496        -2.65601
O         41.41183        38.65549        -2.00088
H         41.47429        37.79350        -2.48385
O         33.18129        41.68995        -0.55118
H         32.41289        41.24887        -0.97466
O         51.30225        26.02441        -0.66047
H         51.31636        26.72534        -1.34773
O         30.17864        37.95363        -1.51761
H         30.72706        37.33748        -2.06815
O         39.07418        26.69649        -2.55275
H         39.05636        27.62981        -2.85825
O         45.20347        36.19660        -2.56277
H         45.01722        35.30447        -2.92550
O         40.39918        35.75739         1.29465
H         39.62220        36.13991         1.75456
O         38.13612        40.91963         2.71050
H         38.09162        41.61075         3.40280
O         43.16242        39.65779         1.93843
H         42.46580        39.95861         2.55898
O         33.88433        52.78607         1.19963
H         33.06840        52.36111         1.54050
O         46.45751        52.65571         1.82805
H         46.52164        53.62687         1.95637
O         33.80137        25.15598         0.96917
H         34.58549        25.55136         1.42111
O         32.99995        46.05785         2.85928
H         32.13298        45.75893         3.21009
O         56.36309        30.37376        -2.11658
H         56.28581        31.21616        -2.63122
O         51.17461        30.44620        -2.16925
H         51.59561        31.16620        -2.70155
O         52.88819        37.78462        -2.95683
H         52.30416        37.18224        -3.47223
O         49.21957        34.23719         1.21942
H         49.10734        33.40307         1.72286
O         40.43101        53.67662        -2.95135
H         39.50843        53.56902        -3.29151
O         24.30447        37.60635         3.35081
H         24.47493        36.63308         3.41670
O         26.59111        24.87926         0.71427
H         25.73826        25.20246         1.07470
O         43.69348        40.19446        -1.65871
H         42.88238        39.73044        -1.99677
O         39.14427        31.08090        -2.79947
H         39.08404        32.02285        -3.06886
O         52.68046        41.92822        -2.07519
H         52.58528        42.89431        -2.22284
O         45.13552        44.73897         2.72081
H         45.53097        43.93782         3.13900
O         31.42761        35.59996        -2.27526
H         30.72989        35.00045        -2.61947
O         43.76057        55.76493         0.79071
H         43.49291        55.00677         1.35399
O         37.49143        40.98157        -0.88115
H         37.40713        40.25065        -1.53863
O         26.79323        29.53261         1.23844
H         26.82744        28.59776         1.53277
O         37.75437        53.89765        -3.07835
H         36.94671        53.36890        -3.25354
O         55.91700        33.59706         1.11506
H         56.61733        34.03418         1.64374
O         43.14902        27.34490        -2.16312
H         42.36546        27.66599        -2.65882
O         23.93886        41.87164        -0.27166
H         24.49654        42.46283        -0.82148
O         29.24864        31.03221        -2.63136
H         28.33181        30.93705        -2.98499
H         22.04261        26.95323        -1.25878
H         22.00455        29.35591        -0.69493
H         22.00991        31.11248         0.23681
H         22.06146        33.49678         0.82006
H         22.11053        35.55897         0.56225
H         22.17327        37.90590         1.20542
H         22.30643        39.66762         2.60150
H         22.19786        42.08951         2.19797
H         22.10836        43.93984         1.54755
H         22.08284        46.38775         1.46190
H         25.35167        23.55274        -1.58146
H         23.29289        24.88145        -1.78765
H         25.44654        49.78064         0.67465
H         23.32431        48.61929         1.00988
H         27.08904        22.47930        -0.79454
H         27.03822        50.53208        -0.41339
H         29.19492        21.32851        -1.08764
H         29.14914        51.67052        -0.78576
H         32.89427        19.19807        -1.16882
H         30.80659        20.37151        -1.40826
H         32.91084        53.70650        -1.47851
H         30.85228        52.40006        -1.45619
H         34.52292        18.26443        -0.78086
H         34.50596        54.89807        -0.72087
H         36.59454        17.07107        -0.38790
H         36.55940        56.03142        -1.45592
H         40.35644        14.95607         0.25257
H         38.23220        16.13417        -0.10999
H         40.47420        57.73783        -3.01629
H         38.27342        56.68786        -2.63984
H         42.80157        14.99281         0.57942
H         42.88371        57.87627        -2.58428
H         44.90150        16.23908         0.81848
H         44.95072        56.99635        -1.60731
H         48.52472        18.45069         1.45843
H         46.48873        17.20827         1.05711
H         48.65118        54.94714        -0.74178
H         46.53983        56.17548        -0.86472
H         50.08147        19.40785         1.85253
H         50.28706        54.12252        -0.09678
H         52.13847        20.62861         2.21368
H         52.39123        52.91126         0.07913
H         55.90109        22.75108         2.04146
H         53.79543        21.57662         2.26715
H         56.10122        50.76315         0.41985
H         53.99730        51.97709         0.42912
H         57.57699        23.63328         1.60608
H         57.76539        49.79424         0.37001
H         59.66775        24.73544         0.99605
H         60.85797        26.68335        -0.03261
H         60.88063        29.05315        -0.68411
H         60.99542        31.05684        -0.54668
H         60.98594        33.49706        -0.60161
H         60.95342        35.32551        -0.09484
H         60.96540        37.73684         0.13585
H         60.98238        39.59519         0.31273
H         61.00783        42.00556         0.54978
H         61.00241        43.90615         0.83447
H         61.04256        46.34929         0.83170
H         59.84612        48.53293         0.52104
