         420
 CSIRO Nanostructure Databank - Neutral Graphene Oxide Data Set
C         28.17441        27.25330        -0.13755
C         27.96061        28.69410         0.09467
C         27.11869        29.43514        -0.84504
C         28.17349        31.55895        -0.19237
C         27.15289        30.79225        -0.87282
C         28.17537        33.00824        -0.30166
C         27.06032        33.70622        -0.78866
C         28.15277        35.85485        -0.41623
C         27.04965        35.09712        -0.84251
C         28.12745        37.31284        -0.45053
C         27.01640        38.00282        -0.97272
C         27.97433        40.13774        -0.35667
C         26.92971        39.38913        -0.91300
C         27.84385        41.61992        -0.04747
C         26.69303        42.29805        -0.74809
C         28.03613        44.28386        -1.23367
C         26.78683        43.54036        -1.25994
C         28.09504        45.60334        -1.76385
C         30.29945        27.24461         1.15028
C         29.24760        26.59379         0.33238
C         30.24755        28.73118         1.36449
C         29.07385        29.48841         0.80906
C         30.44403        31.60666         0.81477
C         29.21810        30.90704         0.46518
C         30.46275        33.05195         0.62416
C         29.31350        33.74654         0.14661
C         30.44662        35.92503         0.52545
C         29.30319        35.17892         0.08219
C         30.42243        37.38591         0.54549
C         29.22100        38.06093         0.06566
C         30.24622        40.28601         0.63184
C         29.13412        39.47354         0.08204
C         30.33633        41.68989         0.15843
C         29.16953        42.33304        -0.24633
C         30.46549        44.47254        -0.55175
C         29.19014        43.67722        -0.72605
C         30.51079        45.73796        -1.38600
C         29.29909        46.28562        -1.86000
C         32.88366        24.49167         1.11444
C         31.66948        25.17549         1.22999
C         32.83166        27.32912         1.16676
C         31.62150        26.56546         1.20705
C         32.81231        28.75352         1.25218
C         31.54369        29.47499         1.72120
C         32.81791        31.67876         1.68598
C         31.54827        30.93994         1.31955
C         32.84948        33.11300         1.22939
C         31.62919        33.79263         0.92991
C         32.79889        35.93133         1.36419
C         31.59467        35.22013         0.90921
C         32.77817        37.44642         1.37498
C         31.53242        38.11544         0.95343
C         32.79072        40.39641         1.31791
C         31.49480        39.58853         1.09469
C         32.78248        41.70952         0.51395
C         31.64051        42.30705         0.03724
C         32.96450        44.39774        -0.63468
C         31.69723        43.58872        -0.78947
C         32.97876        45.74325        -1.09123
C         31.76096        46.39264        -1.53111
C         33.06418        48.38938        -2.09584
C         31.86656        47.70429        -2.07104
C         35.37176        23.08227         0.54890
C         35.33424        24.48342         0.67490
C         34.08516        25.19091         0.94459
C         35.29508        27.35194         0.95125
C         34.06992        26.61886         1.01182
C         35.26263        28.75516         1.06015
C         34.02997        29.48244         1.19059
C         35.28754        31.63841         1.17495
C         34.07064        30.91622         1.29278
C         35.31503        33.08187         1.20933
C         34.07006        33.80417         1.22407
C         35.28092        35.96511         1.24377
C         34.08869        35.23768         1.23666
C         35.25167        37.41045         1.27712
C         34.07188        38.15234         1.25657
C         35.28810        40.26585         0.98893
C         34.07811        39.59298         1.11302
C         35.33817        41.73849         0.81581
C         34.04961        42.47749         0.51920
C         35.38425        44.45877        -0.27525
C         34.12939        43.78898        -0.16670
C         35.40827        45.77469        -0.77588
C         34.21336        46.45231        -1.13430
C         35.48528        48.57314        -1.54919
C         34.26642        47.81615        -1.60908
C         35.54533        49.96134        -1.86318
C         37.75157        23.09690         0.01744
C         36.55453        22.40892         0.23997
C         37.74852        24.53327         0.10262
C         36.53098        25.21927         0.47112
C         37.70417        27.35998         0.38486
C         36.53227        26.64420         0.64603
C         37.82045        28.74534         0.79953
C         36.52088        29.49525         1.17180
C         37.75786        31.65008         0.92660
C         36.53123        30.95282         1.06097
C         37.76620        33.08025         0.95482
C         36.53333        33.79119         1.12162
C         37.74426        35.92974         0.94843
C         36.54411        35.24290         1.12617
C         37.70930        37.42025         0.71632
C         36.57461        38.10927         1.48236
C         37.74951        40.25132         1.02453
C         36.54854        39.57652         1.11605
C         37.80320        41.64150         0.63081
C         36.61735        42.36770         0.43255
C         37.85491        44.35980        -0.24071
C         36.63242        43.74708         0.01046
C         37.95969        45.74417        -0.73787
C         36.68717        46.47210        -1.01688
C         37.87997        48.66801        -0.94034
C         36.69784        47.95044        -1.11922
C         37.92446        50.06657        -1.25843
C         36.71879        50.66552        -1.74959
C         40.25058        20.30535        -0.35473
C         39.07759        20.98476        -0.12382
C         40.15743        23.12027        -0.62364
C         39.00393        22.40139        -0.26349
C         40.06745        24.59379        -0.95385
C         38.89543        25.25525        -0.26686
C         40.16401        27.49362        -0.39248
C         38.84359        26.70710        -0.26742
C         40.20003        28.87788         0.10232
C         39.01394        29.53986         0.47426
C         40.22118        31.66195         0.58585
C         38.99411        30.93953         0.69644
C         40.19527        33.09047         0.56785
C         38.99406        33.78890         0.75269
C         40.18600        35.96632         0.62422
C         38.99543        35.24553         0.75650
C         40.21039        37.39562         0.84561
C         39.02840        38.08950         0.99402
C         40.30616        40.23189         1.04357
C         39.02253        39.53574         1.41657
C         40.29421        41.63608         0.76056
C         39.07577        42.27262         0.45394
C         40.42736        44.41217        -0.07288
C         39.09993        43.61558        -0.11182
C         40.35570        45.89550        -0.11617
C         39.18130        46.52593        -0.42961
C         40.37560        48.73003        -0.43369
C         39.05985        48.01874        -0.23870
C         40.32668        50.23379        -0.41937
C         39.12411        50.81930        -1.13406
C         40.38499        52.88580        -1.48296
C         39.19872        52.18727        -1.50772
C         42.66660        20.33507        -0.87730
C         41.43618        21.01667        -0.67227
C         42.61510        23.16289        -0.99942
C         41.39436        22.43730        -0.78024
C         42.58146        24.60596        -0.99082
C         41.39780        25.33109        -0.79215
C         42.63645        27.44938        -0.36150
C         41.42825        26.74092        -0.52792
C         42.68891        28.83110         0.02644
C         41.44439        29.55970         0.22902
C         42.73575        31.64728         0.81728
C         41.44521        30.93817         0.48991
C         42.73097        33.07918         0.34213
C         41.44288        33.81274         0.21025
C         42.73193        35.96109         0.71174
C         41.46408        35.33764         0.12245
C         42.70564        37.35578         1.00107
C         41.49786        38.07048         0.99982
C         42.76362        40.22092         1.15092
C         41.50272        39.50909         1.09161
C         42.70940        41.68211         1.34363
C         41.50990        42.40555         0.87024
C         42.70808        44.61283         0.95249
C         41.54131        43.77049         0.62350
C         42.76190        46.00204         0.43818
C         41.58796        46.64563         0.06279
C         42.84766        48.77018        -0.25675
C         41.57222        48.07188        -0.21497
C         42.86078        50.17865        -0.64828
C         41.63940        50.87182        -0.80468
C         42.85750        52.90951        -1.38708
C         41.63367        52.22830        -1.20225
C         43.82320        21.03832        -1.12081
C         45.10550        23.17901        -1.26047
C         43.83602        22.46252        -1.15097
C         45.12945        24.58111        -1.17790
C         43.85032        25.31631        -1.17559
C         45.18816        27.36421        -0.42930
C         43.87358        26.79731        -0.81610
C         45.19747        28.81873        -0.03348
C         43.91568        29.53611         0.08953
C         45.18077        31.65344         0.23373
C         43.97383        30.93471         0.32274
C         45.20229        33.09449         0.40408
C         44.00106        33.82782         0.52370
C         45.21087        35.93317         1.05136
C         43.93879        35.23107         0.75326
C         45.24356        37.39938         1.06077
C         43.96090        38.06798         1.47904
C         45.23664        40.27390         1.21788
C         43.97015        39.55898         1.23735
C         45.26707        41.69075         1.24014
C         44.01756        42.43057         1.48108
C         45.27414        44.60026         0.97824
C         44.00905        43.91662         1.30250
C         45.22444        46.01120         0.75113
C         44.01928        46.70229         0.47556
C         45.32140        48.74522        -0.19638
C         44.02027        48.08961         0.06049
C         45.37333        50.16945        -0.70493
C         44.08299        50.88104        -0.85155
C         44.05922        52.24600        -1.19201
C         47.53509        23.18138        -1.51970
C         46.34113        22.49532        -1.43017
C         47.59119        24.59036        -1.37730
C         46.36970        25.29734        -1.17594
C         47.64468        27.39970        -0.87349
C         46.41771        26.70422        -0.92060
C         47.64855        28.92002        -0.85085
C         46.42744        29.58312        -0.23581
C         47.66303        31.70346        -0.23485
C         46.41590        30.95527        -0.07800
C         47.61979        33.13284        -0.10745
C         46.45790        33.78853         0.28285
C         47.67760        36.03559         0.40182
C         46.51064        35.20579         0.70150
C         47.67848        37.39981         0.64727
C         46.43878        38.09740         0.96707
C         47.67420        40.26471         0.87974
C         46.45652        39.55200         1.04571
C         47.67348        41.68606         0.88144
C         46.47648        42.41494         1.04211
C         47.73807        44.59086         0.85493
C         46.47718        43.87788         0.95824
C         47.76679        46.01161         0.86387
C         46.49706        46.74772         0.87684
C         47.83556        48.86021         0.22202
C         46.53744        48.21063         0.47263
C         47.79489        50.24861        -0.16173
C         46.64476        50.89281        -0.50537
C         50.05366        24.67409        -1.72539
C         48.84389        25.31351        -1.37600
C         50.18831        27.37767        -0.80689
C         48.85270        26.71479        -1.09743
C         50.16742        28.89554        -0.82738
C         48.91920        29.53457        -0.25942
C         50.12543        31.76623        -0.50767
C         48.88011        31.04361        -0.40487
C         50.14154        33.18169        -0.42317
C         48.85440        33.89511        -0.39168
C         50.17075        36.05562         0.02708
C         48.87327        35.38670        -0.16489
C         50.16607        37.43277         0.34169
C         48.92063        38.14447         0.53475
C         50.17760        40.25232         0.72019
C         48.91908        39.53519         0.68039
C         50.17625        41.63663         0.86164
C         48.93953        42.41017         0.50484
C         50.17493        44.58381         0.92471
C         48.96266        43.88030         0.84954
C         50.21644        45.99975         0.84022
C         48.98857        46.72460         0.76465
C         50.29671        48.80360         0.48232
C         49.01450        48.15648         0.51450
C         51.24839        25.40733        -1.89125
C         52.56617        27.51863        -1.80792
C         51.33351        26.73868        -1.55268
C         52.54066        29.00724        -1.54243
C         51.30182        29.63534        -1.01214
C         52.57241        31.78067        -0.76477
C         51.34156        31.07062        -0.75260
C         52.59042        33.18606        -0.52273
C         51.35923        33.90158        -0.39100
C         52.62381        36.01425        -0.01242
C         51.37487        35.33051        -0.14744
C         52.64101        37.41154         0.25910
C         51.41364        38.12708         0.43233
C         52.67090        40.23255         0.69923
C         51.42413        39.52809         0.65909
C         52.69483        41.63578         0.88073
C         51.43267        42.33976         1.12184
C         52.71982        44.53902         0.88190
C         51.44200        43.85504         1.15397
C         52.71148        45.97782         0.80666
C         51.49023        46.68810         0.79412
C         51.46488        48.11516         0.64862
C         55.02697        27.56694        -1.71718
C         53.88049        26.85128        -1.79853
C         55.03063        28.99955        -1.49814
C         53.82185        29.70101        -1.31696
C         55.06207        31.76313        -0.85596
C         53.82384        31.07663        -0.97123
C         55.06887        33.18044        -0.55723
C         53.84265        33.88708        -0.41936
C         55.09824        35.98214        -0.02333
C         53.85763        35.29422        -0.15488
C         55.11684        37.40323         0.22191
C         53.89117        38.11177         0.35153
C         55.14252        40.23663         0.64534
C         53.90520        39.52450         0.56031
C         55.14638        41.65807         0.77616
C         53.90938        42.36360         0.82784
C         55.16588        44.50538         0.34558
C         53.89586        43.80679         0.77478
C         55.16105        45.96227         0.71328
C         54.00117        46.64584         0.83884
C         56.25563        29.69424        -1.35757
C         56.26754        31.04172        -1.05728
C         56.28646        33.88935        -0.40749
C         56.30200        35.24281        -0.14784
C         56.33676        38.12946         0.33107
C         56.35251        39.48907         0.53513
C         56.37437        42.41964         0.91888
C         56.39536        43.76408         0.78834
O         51.42406        43.09863         2.41432
O         43.25782        42.03583         2.66358
O         43.20974        44.57127         2.33428
O         48.68137        34.84012        -1.52572
O         45.53079        49.01398        -1.62158
O         52.39340        28.49103        -2.91523
O         45.29767        27.71722         0.98718
O         39.26908        27.32814        -1.56234
O         30.46772        40.03857         2.06449
O         42.11511        33.22200        -0.98245
O         37.47538        45.88254        -2.13435
O         32.63226        36.67942         2.62186
O         27.82775        29.14367         1.47685
O         39.99275        43.74627        -1.28657
O         46.04052        35.33596         2.09831
O         34.65524        42.52038         1.86094
O         29.84390        27.81221         2.43271
O         43.81729        26.37576        -2.20923
O         37.41584        28.95828         2.20042
O         46.37680        47.83826         1.87335
O         47.64511        29.31243        -2.25503
H         46.88359        28.88402        -2.69899
O         36.88305        37.96263         2.89042
H         36.23264        38.48622         3.40371
O         27.53674        41.67816         1.38134
H         27.63791        42.60892         1.67048
O         38.73102        48.19196         1.20944
H         39.45596        47.77388         1.72425
O         50.44321        27.05226         0.61889
H         49.74686        27.53021         1.13556
O         43.92276        37.91520         2.94590
H         44.71544        38.36110         3.31353
O         55.17999        44.46262        -1.13325
H         54.39642        44.96460        -1.44353
O         39.03495        39.55646         2.88997
H         39.75474        38.96338         3.19405
O         48.94545        42.42393        -0.98602
H         48.84150        41.49443        -1.28504
O         31.64071        29.43867         3.18033
H         31.06493        28.68876         3.47570
O         37.42089        37.62327        -0.70559
H         38.14729        37.20843        -1.21829
O         30.52153        44.88845         0.84653
H         29.77896        45.50777         1.00496
O         48.89347        29.24525         1.17799
H         49.58156        29.79576         1.60813
O         32.87039        31.79246         3.15239
H         32.53835        30.93745         3.52343
O         39.76332        24.67805        -2.39188
H         39.61932        25.63721        -2.58047
O         32.82548        40.76266         2.71614
H         31.88813        40.86327         3.00614
O         40.11570        50.59618         1.00212
H         39.37246        50.02808         1.32321
O         42.83399        31.69765         2.27336
H         42.93227        30.78042         2.60499
O         31.67648        43.16192        -2.18158
H         30.81297        42.72703        -2.34705
O         41.50499        35.69291        -1.29627
H         41.92367        34.92490        -1.75597
H         27.45445        26.73318        -0.78814
H         26.45266        28.87548        -1.51811
H         26.46800        31.31934        -1.55055
H         26.16217        33.16578        -1.11416
H         26.14417        35.59096        -1.21706
H         26.17288        37.45059        -1.40601
H         26.02064        39.88220        -1.28188
H         25.71356        41.79918        -0.72081
H         25.90517        44.03115        -1.69949
H         27.17702        46.05610        -2.16395
H         29.38687        25.53620         0.06509
H         29.30223        47.26085        -2.36663
H         32.86560        23.39474         1.12098
H         30.74017        24.59678         1.32088
H         33.07153        49.40940        -2.50288
H         30.96885        48.21275        -2.44743
H         34.46204        22.48531         0.69239
H         34.64556        50.48989        -2.20538
H         36.51565        21.31536         0.15252
H         36.70983        51.73114        -2.01263
H         40.28659        19.21001        -0.26853
H         38.18451        20.41507         0.16389
H         40.40395        53.94512        -1.77683
H         38.29795        52.71152        -1.85559
H         42.68606        19.23715        -0.82456
H         42.85056        53.96482        -1.69415
H         44.75656        20.47861        -1.26111
H         45.00112        52.78947        -1.34586
H         48.45829        22.60571        -1.66733
H         46.36261        21.40167        -1.51671
H         48.72515        50.83319        -0.12586
H         46.67851        51.97468        -0.69471
H         50.05985        23.61014        -1.99438
H         50.34416        49.89109         0.33717
H         52.11032        24.89812        -2.34648
H         52.41015        48.67310         0.62355
H         55.99899        27.05186        -1.73738
H         53.92107        25.75354        -1.84252
H         56.12394        46.49257         0.76337
H         54.03628        47.72823         1.02630
H         57.20143        29.15160        -1.49737
H         57.23634        31.55085        -0.97515
H         57.24635        33.36505        -0.49666
H         57.27277        35.74330        -0.04127
H         57.29730        37.60577         0.24090
H         57.32025        40.00442         0.59475
H         57.30349        41.88782         1.16978
H         57.33369        44.32476         0.91299
