         420
 CSIRO Nanostructure Databank - Neutral Graphene Oxide Data Set
C         27.96809        27.33475        -0.19299
C         27.89208        28.74743        -0.69618
C         26.69738        29.49621        -0.16356
C         27.98299        31.63593         0.05883
C         26.72270        30.80687         0.09838
C         27.79921        32.99479        -0.60438
C         26.68478        33.83491        -0.11599
C         27.80737        35.94637        -0.73797
C         26.69965        35.18626        -0.20323
C         27.79483        37.34334        -0.69824
C         26.62209        38.06317        -0.29546
C         27.84356        40.18288        -0.13313
C         26.64169        39.41490        -0.06603
C         27.76786        41.65299        -0.03969
C         26.62746        42.34477         0.58161
C         27.91378        44.42645         0.78752
C         26.68472        43.66678         0.87761
C         27.94950        45.78573         1.17596
C         30.42182        27.34505        -0.34744
C         29.14779        26.68721        -0.10627
C         30.43771        28.76259        -0.52708
C         29.19080        29.50407        -0.51324
C         30.38785        31.63505        -0.77282
C         29.18116        30.88118        -0.47817
C         30.32594        32.98809        -1.07602
C         29.01566        33.69418        -1.14534
C         30.26306        35.97260        -1.49931
C         28.97452        35.20256        -1.28056
C         30.30176        37.45595        -1.26239
C         29.01380        38.16010        -0.94584
C         30.31947        40.24948        -0.37119
C         29.06388        39.55651        -0.43202
C         30.35173        41.64245        -0.10648
C         29.10005        42.41592        -0.08817
C         30.36233        44.45929         0.55487
C         29.12310        43.78318         0.44645
C         30.37133        45.84210         0.88103
C         29.14513        46.48151         1.18882
C         32.85268        24.51478        -0.02740
C         31.67669        25.19450        -0.17516
C         32.89357        27.32340        -0.29847
C         31.64332        26.62537        -0.27676
C         32.90127        28.74705        -0.46115
C         31.66135        29.46434        -0.56602
C         32.84780        31.57660        -0.92691
C         31.65427        30.90188        -0.77177
C         32.86752        32.98013        -1.39000
C         31.55365        33.71315        -1.48393
C         32.86371        35.96996        -1.35379
C         31.57946        35.22540        -1.58741
C         32.83402        37.33511        -1.13023
C         31.56794        38.02938        -0.66133
C         32.77853        40.21511        -0.46919
C         31.58701        39.54692        -0.58860
C         32.82847        41.54152         0.25311
C         31.56598        42.34216         0.11935
C         32.85001        44.44412         0.42613
C         31.59688        43.73296         0.35330
C         32.84754        45.86196         0.60757
C         31.62631        46.56508         0.84623
C         32.85128        48.67499         0.93022
C         31.65890        47.96488         0.99326
C         35.33606        23.07536         0.54209
C         35.31173        24.51065         0.35548
C         34.11373        25.19560         0.06887
C         35.35620        27.33931        -0.03927
C         34.11985        26.62589        -0.09675
C         35.36787        28.75021        -0.29045
C         34.13901        29.43136        -0.49248
C         35.41078        31.62357        -0.78498
C         34.11524        30.89756        -0.61999
C         35.45288        33.04336        -1.25803
C         34.15013        33.77371        -1.43812
C         35.31845        35.93824        -0.97433
C         34.13537        35.25877        -1.30969
C         35.35923        37.36421        -0.91926
C         34.10061        38.09360        -1.15132
C         35.32942        40.25026        -0.45740
C         34.07133        39.59102        -0.84031
C         35.30097        41.62543        -0.11022
C         34.10013        42.32975         0.06232
C         35.31392        44.50312         0.17954
C         34.08626        43.74839         0.25188
C         35.28700        45.91682         0.25493
C         34.07796        46.60050         0.51639
C         35.32743        48.76497         0.72775
C         34.07807        48.02744         0.70636
C         35.36809        50.13250         1.10693
C         37.68099        23.13055         1.41066
C         36.42117        22.42474         1.00977
C         37.67655        24.59898         1.03492
C         36.54391        25.24300         0.54595
C         37.79349        27.39604         0.38479
C         36.57290        26.67093         0.28945
C         37.82478        28.78477         0.01296
C         36.63091        29.42927        -0.34907
C         37.96355        31.59157        -0.73328
C         36.66711        30.82056        -0.84334
C         37.93061        33.06419        -0.60429
C         36.70711        33.79602        -0.98959
C         37.83925        35.95988        -0.49155
C         36.53972        35.19931        -0.45668
C         37.81558        37.37743        -0.53596
C         36.55700        38.08057        -0.67947
C         37.80039        40.21434        -0.48450
C         36.55906        39.52045        -0.55823
C         37.75963        41.72025        -0.61477
C         36.61171        42.31611         0.19182
C         37.78255        44.52200         0.04821
C         36.56630        43.82318         0.04760
C         37.80204        45.95306         0.11757
C         36.52101        46.70620        -0.12301
C         37.77152        48.81143         0.49455
C         36.55173        48.11201         0.43125
C         37.78692        50.21463         0.79541
C         36.55351        50.83732         1.12450
C         40.09411        20.68229        -0.32343
C         38.91552        21.24228         0.16857
C         40.17411        23.12512         1.04175
C         38.93648        22.47944         0.82921
C         40.24180        24.55639         1.43647
C         38.90392        25.35721         1.28621
C         40.23478        27.42358         0.86914
C         38.99302        26.75459         0.83972
C         40.30614        28.82244         0.48719
C         39.09000        29.51178         0.05777
C         40.42227        31.62004        -0.36967
C         39.13527        30.86458        -0.23463
C         40.32026        33.10699        -0.07846
C         39.07283        33.79152        -0.29670
C         40.27455        35.96776        -0.18258
C         39.04041        35.25161        -0.29648
C         40.26968        37.39070        -0.29254
C         39.03930        38.09483        -0.43301
C         40.28009        40.25322        -0.41430
C         39.03097        39.53556        -0.46440
C         40.27628        41.69008        -0.28617
C         39.05873        42.40390        -0.26095
C         40.26806        44.47653         0.20298
C         39.04549        43.78876        -0.00471
C         40.23018        45.89828         0.55822
C         38.98626        46.65272         0.33666
C         40.25530        48.78437         0.37692
C         39.03201        48.08699         0.38582
C         40.22118        50.27172         0.13546
C         39.01197        50.95126         0.73298
C         40.28338        53.03468         0.91315
C         39.08860        52.33197         1.00132
C         42.57409        20.77157        -0.62245
C         41.33582        21.27884        -0.04476
C         42.65899        23.06044         1.26728
C         41.37345        22.47923         0.69201
C         42.72377        24.56303         1.01030
C         41.49356        25.29742         1.20320
C         42.72646        27.43147         1.28871
C         41.45086        26.69862         1.15003
C         42.72240        28.94916         1.25131
C         41.51093        29.53083         0.55652
C         42.75760        31.63924         0.48337
C         41.58124        30.92692         0.28067
C         42.71811        33.11160         0.50971
C         41.48003        33.83095         0.14835
C         42.73870        35.97673        -0.03066
C         41.49876        35.26591         0.03542
C         42.71945        37.38093        -0.26799
C         41.51626        38.09908        -0.32942
C         42.74038        40.27292        -0.39167
C         41.51213        39.55169        -0.41526
C         42.74371        41.69593        -0.24206
C         41.50621        42.40001        -0.13599
C         42.75946        44.53884         0.11614
C         41.50851        43.80791         0.08537
C         42.78272        45.94167         0.25382
C         41.54912        46.67070         0.57660
C         42.74249        48.82135         0.26331
C         41.51118        48.12482         0.37467
C         42.74762        50.26608         0.33047
C         41.52545        50.96613         0.43280
C         42.75902        53.05819         0.72171
C         41.52069        52.36224         0.66622
C         43.76493        21.29807        -0.28668
C         45.19090        23.06671         0.71144
C         43.93973        22.22253         0.90318
C         45.17572        24.47374         0.61504
C         43.93210        25.20982         0.81086
C         45.20239        27.40805         0.58682
C         44.01194        26.66615         1.04577
C         45.22471        28.80343         0.53583
C         44.02455        29.56650         0.76168
C         45.26071        31.67500         0.39265
C         44.02297        30.95176         0.60658
C         45.27042        33.07820         0.26402
C         44.03140        33.86297         0.42749
C         45.22859        35.92979        -0.15684
C         43.99312        35.27963         0.03485
C         45.26404        37.38002        -0.29409
C         43.98646        38.08489        -0.67115
C         45.18787        40.23296        -0.26359
C         43.99492        39.56033        -0.35570
C         45.20519        41.68496        -0.47346
C         43.96038        42.42628        -0.24958
C         45.23475        44.55282        -0.06984
C         43.99256        43.83337        -0.08846
C         45.23277        45.97147         0.04340
C         43.99216        46.68113         0.14717
C         45.22710        48.83044         0.20463
C         43.98663        48.10998         0.22361
C         45.22891        50.25296         0.25904
C         43.98531        50.97591         0.37785
C         43.95132        52.38614         0.55595
C         47.61428        23.07857         0.47342
C         46.41806        22.39222         0.64835
C         47.62885        24.48148         0.32195
C         46.39332        25.16861         0.38506
C         47.66472        27.36489        -0.11499
C         46.34657        26.62229         0.12169
C         47.68426        28.81741         0.10414
C         46.47301        29.51335         0.27471
C         47.72211        31.64699         0.15880
C         46.48443        30.94562         0.28562
C         47.73301        33.06848         0.02108
C         46.48144        33.78161         0.02410
C         47.69704        35.92631        -0.31927
C         46.43955        35.19224        -0.11528
C         47.69659        37.35817         0.08545
C         46.43026        38.07573        -0.13285
C         47.75591        40.26312        -0.08585
C         46.44412        39.54191         0.19314
C         47.75382        41.64915        -0.16579
C         46.52848        42.40920        -0.46905
C         47.69887        44.52829        -0.06833
C         46.49879        43.86719        -0.20364
C         47.70544        45.94856         0.26661
C         46.45678        46.69947         0.13226
C         47.72531        48.83307         0.06472
C         46.47613        48.11286         0.16461
C         47.66917        50.25653         0.07528
C         46.47789        50.93404         0.19628
C         50.15282        24.53336         0.27520
C         48.89519        25.21834         0.16505
C         50.19957        27.33448        -0.28036
C         48.91440        26.59825         0.00301
C         50.17307        28.80024         0.07673
C         48.94588        29.50341         0.12648
C         50.19943        31.63658         0.14715
C         48.95579        30.93337         0.16820
C         50.20082        33.06460         0.02068
C         48.97519        33.74646        -0.09077
C         50.25736        35.95277        -0.12471
C         48.99930        35.19848        -0.31887
C         50.26348        37.34990        -0.09405
C         49.00533        38.09669         0.14032
C         50.24899        40.24309        -0.13192
C         48.99652        39.56049         0.00320
C         50.27086        41.66156        -0.14846
C         49.00324        42.41201         0.19059
C         50.26413        44.55624        -0.23527
C         48.97176        43.79842        -0.43905
C         50.27220        45.96686        -0.21859
C         49.05269        46.71877         0.14458
C         50.17869        48.79624        -0.49857
C         48.96964        48.15338        -0.10995
C         51.36266        25.21215         0.31129
C         52.66316        27.34522         0.30267
C         51.44104        26.60975         0.16927
C         52.63216        28.76450         0.32644
C         51.40646        29.48938         0.21559
C         52.67192        31.64925         0.19896
C         51.42209        30.92606         0.22956
C         52.67089        33.07303         0.02092
C         51.44888        33.78623        -0.05292
C         52.71169        35.91966        -0.24691
C         51.47262        35.21326        -0.13491
C         52.70976        37.35866        -0.32105
C         51.49336        38.07304        -0.21061
C         52.70606        40.22721        -0.36724
C         51.48299        39.51457        -0.23615
C         52.70329        41.65744        -0.41907
C         51.47293        42.37466        -0.31318
C         52.69979        44.54135        -0.49859
C         51.46926        43.83211        -0.34784
C         52.70217        45.96550        -0.59780
C         51.46746        46.68952        -0.46378
C         51.37444        48.11404        -0.60446
C         55.12564        27.37380         0.38013
C         53.92878        26.67403         0.38684
C         55.15143        28.78132         0.42697
C         53.87414        29.51377         0.73230
C         55.13883        31.66162         0.25974
C         53.89375        30.96319         0.31670
C         55.14914        33.07318         0.08334
C         53.91386        33.78263        -0.07486
C         55.19909        35.86185        -0.70812
C         53.91767        35.18756        -0.28515
C         55.17759        37.37015        -0.57102
C         53.95475        38.07663        -0.44559
C         55.17515        40.22052        -0.60815
C         53.94846        39.50686        -0.46416
C         55.16885        41.67416        -0.65358
C         53.93765        42.37672        -0.55916
C         55.14732        44.51620        -0.78322
C         53.92697        43.80914        -0.60997
C         55.12786        45.94100        -0.87384
C         53.94797        46.63726        -0.79718
C         56.35402        29.51841         0.35075
C         56.35905        30.90207         0.31917
C         56.36524        33.85676         0.18819
C         56.39296        35.18166        -0.08641
C         56.36633        38.09214        -0.72058
C         56.37038        39.48492        -0.72808
C         56.37142        42.41459        -0.80110
C         56.36410        43.79274        -0.87140
O         33.58464        33.18002        -2.65926
O         40.90355        46.22263         1.82265
O         48.31083        37.61748         1.40269
O         34.81163        31.57409         0.55146
O         48.34922        35.62799        -1.59934
O         34.12515        39.10121        -2.22816
O         46.79880        26.96621        -1.23884
O         42.48078        22.99923         2.66938
O         45.90043        42.03707        -1.75224
O         29.38151        35.65691        -2.60738
O         29.62901        38.17681        -2.30869
O         28.03781        33.01771        -2.03510
O         37.46844        31.04717        -2.03385
O         31.51709        34.39756        -2.77889
O         48.50526        46.30604         1.44063
O         43.35219        33.64218         1.72519
O         43.55215        26.99416         2.42129
O         39.51267        25.03126         2.59460
O         36.32957        33.43439        -2.35671
O         28.25277        42.28408        -1.27363
O         53.81443        29.55576         2.22676
H         54.63529        30.00174         2.52835
O         37.76249        23.00859         2.85811
H         38.50256        23.59371         3.15794
O         28.31768        31.95827         1.44730
H         28.43986        31.11462         1.93158
O         40.04343        50.40987        -1.33471
H         40.01448        51.37131        -1.52922
O         31.46230        37.62702         0.76078
H         32.08075        38.18271         1.28334
O         36.42846        46.86520        -1.58944
H         35.58832        47.33406        -1.78069
O         48.99329        42.60032         1.63643
H         48.95430        41.71646         2.05871
O         37.48555        42.01920        -2.01233
H         38.16967        41.58299        -2.56150
O         36.90349        42.04744         1.59607
H         36.16969        42.41257         2.13312
O         42.58706        29.39168         2.63982
H         43.08628        28.73923         3.18460
O         36.25054        34.97161         0.97107
H         36.33906        35.82935         1.43805
O         44.19376        21.34160         2.01747
H         43.61544        21.71252         2.74640
O         55.31528        35.62106        -2.16137
H         55.29174        34.64965        -2.29693
O         43.95324        38.04323        -2.14625
H         44.70646        38.57681        -2.47958
O         50.30041        27.33956        -1.77144
H         50.12697        26.42249        -2.07563
O         48.90213        43.56449        -1.87826
H         48.84744        44.42902        -2.33554
O         32.86844        41.12969         1.69525
H         32.76021        41.94846         2.22646
O         27.70418        28.65318        -2.14786
H         27.72134        29.56522        -2.50947
O         40.72857        31.56979        -1.81980
H         39.88397        31.68107        -2.31018
O         46.36520        39.57825         1.66741
H         47.04739        38.93721         1.99240
H         27.02685        26.80842         0.02483
H         25.74969        28.94000        -0.08531
H         25.80598        31.30579         0.44925
H         25.83351        33.34096         0.37335
H         25.83944        35.73138         0.20735
H         25.65889        37.54189        -0.22795
H         25.69614        39.92257         0.16624
H         25.70968        41.78071         0.79946
H         25.80129        44.17342         1.29377
H         27.01379        46.29269         1.45142
H         29.15233        25.63606         0.21457
H         29.13183        47.54316         1.46794
H         32.81761        23.42010         0.04418
H         30.74066        24.62335        -0.22978
H         32.81221        49.76484         1.05274
H         30.72923        48.52526         1.15479
H         34.43001        22.49491         0.32072
H         34.44420        50.65865         1.37956
H         36.36176        21.34429         1.20395
H         36.52886        51.90124         1.39487
H         40.05834        19.74937        -0.90414
H         37.96116        20.72922        -0.01270
H         40.29829        54.11445         1.11808
H         38.18637        52.88121         1.30524
H         42.50006        19.99559        -1.39999
H         42.75584        54.14347         0.89751
H         44.68119        20.92642        -0.77233
H         44.88732        52.95825         0.59961
H         48.54773        22.50209         0.43889
H         46.43088        21.29987         0.76416
H         48.60124        50.83496         0.02112
H         46.50399        52.03115         0.22494
H         50.17114        23.44468         0.40917
H         50.17906        49.87921        -0.68508
H         52.27355        24.62956         0.50853
H         52.27657        48.68883        -0.85332
H         56.07609        26.82377         0.30794
H         53.96212        25.57711         0.35220
H         56.07828        46.47680        -1.01076
H         53.96975        47.73273        -0.87215
H         57.30732        28.97264         0.28314
H         57.32265        31.42356         0.24907
H         57.27875        33.36901         0.55781
H         57.33325        35.73884         0.03338
H         57.31828        37.56144        -0.85845
H         57.33123        40.00047        -0.85374
H         57.33434        41.89189        -0.87036
H         57.30721        44.34338        -0.99858
