         294
 CSIRO Nanostructure Databank - Neutral Graphene Oxide Data Set
C         30.31610        31.52211         0.62877
C         30.25401        32.73916         0.34766
C         30.04964        35.89380        -0.00315
C         30.22911        37.10802         0.22816
C         30.78876        39.99140         2.01920
C         30.89980        41.21592         2.17159
C         32.72923        28.67806         0.77742
C         31.69365        29.32525         1.02588
C         32.69855        31.40397         0.48920
C         31.46515        30.70806         0.79511
C         32.64525        32.83390         0.04425
C         31.31901        33.59277        -0.18538
C         32.54870        35.85924         0.03448
C         31.25052        35.09487        -0.51267
C         32.48000        37.38816        -0.39671
C         31.30603        37.99906         0.49647
C         32.93636        40.51887         0.22361
C         31.50537        38.80089         1.60402
C         33.17800        41.60378         1.23970
C         32.05678        42.13394         2.12881
C         33.27831        44.27624         1.84382
C         32.30504        43.57754         2.17669
C         35.48757        27.11002         0.45049
C         35.25837        28.50793         0.07592
C         33.97788        29.25019         0.27276
C         35.20390        31.48119         0.23323
C         33.94471        30.74861         0.33981
C         35.17634        32.87261         0.25565
C         33.87614        33.64436         0.40454
C         35.07393        35.87177        -0.04081
C         33.83196        35.04673        -0.36477
C         35.12229        37.28143        -0.66791
C         33.86652        38.15249        -0.40371
C         35.48328        40.22517         0.02135
C         34.10411        39.62925        -0.11774
C         35.63825        41.64901         0.47499
C         34.43103        42.41029         0.94287
C         35.65179        44.60713         0.73219
C         34.26956        43.93401         0.71718
C         35.66434        46.01994         0.20387
C         37.94658        26.96720         0.90671
C         36.55218        26.52240         0.62503
C         37.80585        28.56191         0.73947
C         36.61797        29.25245         0.00202
C         37.68788        31.46773         0.36828
C         36.50979        30.76411         0.28541
C         37.68754        32.95610         0.22965
C         36.41103        33.65668         0.66480
C         37.67546        35.92392         0.29066
C         36.34975        35.15754         0.31248
C         37.63251        37.11568        -0.70565
C         36.44730        37.99153        -0.21484
C         37.94206        40.13415        -0.48908
C         36.55465        39.49429        -0.40122
C         37.70024        41.59865        -0.98575
C         36.93936        42.39645         0.11608
C         37.67517        44.56564        -1.08290
C         36.63768        43.85609        -0.24990
C         37.64860        46.12238        -1.38140
C         36.47887        46.52667        -0.55857
C         40.17297        24.48394        -0.99655
C         39.20256        25.27891        -0.59826
C         40.46590        27.10444         0.20305
C         39.02868        26.45473         0.00790
C         40.38992        28.63847         0.32257
C         39.08970        29.31073         0.61890
C         40.29358        31.58265         0.42682
C         39.01469        30.81345         0.51478
C         40.28252        33.06204         0.34007
C         38.97276        33.73679         0.24651
C         40.28560        35.93365         0.67192
C         38.95500        35.20305         0.55880
C         40.16832        37.07505        -1.25129
C         38.92528        37.88730        -1.08142
C         40.34039        40.06539        -1.38672
C         38.92000        39.37559        -1.44904
C         40.30256        41.57109        -1.27963
C         38.99154        42.32880        -1.35955
C         40.27535        44.53460        -0.99659
C         38.99031        43.83442        -1.35444
C         40.24379        46.02335        -0.80695
C         38.94493        46.78709        -0.97318
C         39.95824        48.68414         0.24604
C         39.01094        48.06263        -0.24118
C         42.75451        24.61898        -1.15379
C         41.41168        25.05107        -1.06753
C         42.78587        27.33448        -0.89604
C         41.39332        26.65987        -0.98478
C         42.78918        28.73302        -0.37326
C         41.50763        29.37773         0.05932
C         42.86719        31.68113         0.00496
C         41.47537        30.87345        -0.24600
C         42.66621        32.88364         0.94510
C         41.46032        33.72188         0.54363
C         42.73087        35.83432         0.26712
C         41.53977        35.16956         0.41685
C         42.75985        37.28569        -0.07628
C         42.00882        37.91272        -1.26995
C         42.79796        40.12096        -0.84384
C         41.65626        39.39477        -1.04215
C         42.80156        41.61180        -0.65955
C         41.48581        42.33875        -0.75943
C         42.69462        44.48602        -0.31740
C         41.42789        43.83098        -0.78473
C         42.63133        45.90440         0.14000
C         41.26534        46.62226         0.18816
C         42.52933        48.59065         0.95896
C         41.38681        48.25016         0.03028
C         43.89193        25.11326        -1.03540
C         45.38304        27.25134        -0.51990
C         44.12911        26.56281        -0.95581
C         45.37423        28.68353         0.03077
C         44.03118        29.35049         0.21890
C         45.29579        31.57407         0.57524
C         44.02448        30.81965         0.51063
C         45.25783        32.95254         1.10303
C         43.94514        33.71346         1.06310
C         45.32529        35.82503         0.42565
C         43.97991        35.17647         0.72290
C         45.30007        37.35279         0.39091
C         44.02675        38.06827         0.11472
C         45.39192        40.14888        -0.51355
C         44.10089        39.39565        -0.61438
C         45.42103        41.64381        -0.77595
C         44.09106        42.37744        -0.89173
C         45.27023        44.49711        -0.12183
C         44.01514        43.94317        -0.88746
C         45.22396        46.04965        -0.03889
C         43.91430        46.72570         0.15468
C         43.61633        48.01823         0.77419
C         47.77259        27.44153        -0.47115
C         46.76122        26.75084        -0.30808
C         47.86035        28.88108        -0.76148
C         46.61154        29.54200        -0.16375
C         47.79470        31.77406         0.09235
C         46.46217        31.08388        -0.25732
C         47.80826        33.08767         0.81575
C         46.52762        33.74870         1.28140
C         47.74176        36.00622         1.07140
C         46.43294        35.30815         1.39907
C         47.74787        37.26904         0.56106
C         46.49607        38.01027         0.34405
C         47.77588        40.32086         0.38142
C         46.52700        39.50659         0.23996
C         47.80418        41.76917        -0.03734
C         46.68546        42.40483        -0.47572
C         48.11316        44.78251        -0.16945
C         46.52167        43.89007        -0.86451
C         47.61511        46.05024         0.20604
C         46.51272        46.59623         0.42911
C         50.44199        29.35615        -0.88033
C         49.10433        29.66092        -1.06916
C         50.35811        31.96564         0.02002
C         49.06105        31.60931        -0.80146
C         50.30079        33.15491         0.69316
C         49.02918        33.98024         0.55098
C         50.27054        35.99738         1.34376
C         48.96720        35.21955         1.47035
C         50.29519        37.33249         0.56011
C         49.00941        37.80590        -0.07761
C         50.27586        40.28843        -0.33750
C         49.13745        39.69123         0.59545
C         50.36763        41.71494         0.13371
C         49.06616        42.41203         0.52993
C         50.41665        44.31746         1.07025
C         49.19583        43.93111         0.35390
C         51.59081        29.83661        -0.50509
C         52.65553        31.97446         0.44226
C         51.60665        31.17861        -0.07949
C         52.72390        33.00968         1.14141
C         51.45103        33.71635         1.59723
C         52.58405        36.04091         1.12796
C         51.51466        35.21071         1.44587
C         52.73558        37.20562         0.66617
C         51.60064        37.93673         0.07295
C         52.70380        40.26707         0.20016
C         51.60391        39.42359        -0.23247
C         52.66614        41.34423         0.82856
C         51.74435        42.45738         0.42485
C         51.38136        43.58363         1.35822
O         42.04091        41.93754         0.54824
O         48.24129        29.22690        -2.10336
O         38.15891        35.80178         1.65721
O         41.24492        30.94805        -1.60887
O         33.86593        39.14657        -1.48055
O         43.82958        34.70465         2.12009
O         42.85883        28.47789        -1.80850
O         39.48261        37.14329        -2.30800
O         50.25497        37.29708         2.00811
O         33.15304        41.35387         2.68957
O         36.46058        43.99948        -1.67349
O         42.33293        37.55773        -2.41063
O         45.94052        33.08700         2.42476
O         46.28287        28.96364         1.12463
O         40.33313        36.97864         1.31851
O         35.46735        35.78748         1.33245
O         49.02011        32.11579        -1.95699
O         38.93677        43.08859        -2.60857
O         48.93903        37.90722        -1.34944
O         42.70105        44.80179         1.11556
O         39.79900        31.23687         1.73743
O         44.81123        41.93406        -2.06435
O         42.95783        38.11596         1.10968
O         44.60304        46.75183        -1.12293
O         40.55719        40.90721        -2.56406
O         38.33866        29.11271         1.94752
O         32.03946        32.92653        -1.26524
O         46.60080        44.13632        -2.11834
O         51.73609        38.43876        -1.26167
O         48.11556        31.83515         1.50014
O         43.76859        29.84183         1.56832
O         39.94965        46.77779        -2.02509
O         38.25510        33.43563        -1.01758
O         46.87271        40.13253         1.52881
O         34.41946        28.77296        -1.05455
O         35.41733        41.94613         1.90437
O         45.05399        39.38248        -1.71206
O         49.17345        44.48128        -1.01089
O         45.01472        27.17636        -1.91654
O         46.12500        31.43242        -1.61669
H         45.16321        31.66727        -1.68548
O         44.01662        44.38588        -2.23235
H         44.93585        44.25505        -2.59994
O         31.92804        40.50627        -0.45807
O         45.28319        43.96242         1.20058
H         44.41846        44.16595         1.63424
O         35.10015        37.08730        -2.08318
H         34.75140        37.90682        -2.50227
O         48.96176        34.52088        -0.77935
H         49.00628        33.78223        -1.45056
O         37.79857        42.45002         1.27144
H         37.26830        42.84609         2.00873
O         37.33938        36.36104        -1.88897
H         37.18248        36.96276        -2.64809
O         41.74714        48.55438        -1.27216
H         41.84245        49.52116        -1.38731
O         46.16804        35.65048         2.76316
H         45.42842        35.07153         3.07700
O         37.02492        29.15142        -1.38025
H         36.23065        29.26156        -1.94982
O         33.65921        44.11697        -0.53331
H         33.82302        45.03330        -0.84652
O         42.40273        32.33937         2.24636
H         42.47030        33.06487         2.90344
O         33.76359        33.77554         1.84981
H         34.66896        33.98289         2.21462
O         49.82028        40.27466        -1.67225
H         49.65709        39.33586        -1.95687
O         40.76441        27.08756        -2.18098
H         41.30979        27.80489        -2.58502
O         43.32185        32.17288        -1.26493
H         42.62493        31.84469        -1.91911
O         36.86571        41.47496        -2.13345
H         37.01824        42.26227        -2.70796
O         51.17817        33.40194         2.94157
H         50.96062        32.45098         3.02635
O         48.91645        42.19635         1.96889
H         49.65008        42.66670         2.42751
O         33.87723        34.75473        -1.75407
H         32.98775        34.89627        -2.16493
O         40.99655        26.56292         1.40745
H         40.28291        26.57509         2.09057
O         49.44918        39.58627         1.89982
H         48.64727        39.78418         2.44093
O         38.58143        40.03095         0.78993
H         38.29316        40.78478         1.36736
O         52.20001        43.03377        -0.76724
H         52.50182        42.33884        -1.38755
O         38.44595        39.45178        -2.78925
H         38.99126        40.12124        -3.26997
O         36.49339        37.96145         1.23254
H         37.35035        38.35011         1.52287
O         48.82383        34.78604         2.82803
H         47.99811        35.16906         3.21003
O         37.43968        46.30284        -2.76132
H         38.29799        46.52204        -3.18657
O         45.67384        35.36060        -0.89712
H         46.44320        35.86764        -1.23815
O         32.45980        35.96509         1.45191
H         32.79118        35.14962         1.90239
O         38.33499        26.67619         2.24025
H         38.18813        27.48260         2.79100
O         32.03804        37.46538        -1.73577
H         32.07489        38.40692        -2.01630
O         31.23963        35.17205        -1.93085
H         30.48699        34.64893        -2.27544
O         32.77069        38.81557         2.12429
H         32.89513        39.58481         2.73808
O         40.67829        46.35939         1.46104
H         41.35313        46.47844         2.16170
O         36.21260        44.54328         2.02809
H         35.52725        44.80393         2.68173
O         36.43225        33.60831         2.13089
H         36.96559        34.38524         2.43569
