         630
 CSIRO Nanostructure Databank - Neutral Graphene Oxide Data Set
C         23.30427        27.71216         2.43154
C         23.15601        28.90741         1.80524
C         23.11655        31.90325         1.33372
C         23.20938        33.20086         1.64920
C         23.25477        36.11162         1.37977
C         23.19165        37.47912         1.07188
C         23.07742        40.36510         0.52664
C         23.04717        41.74489         0.35672
C         23.00132        44.69570         0.00033
C         23.01936        46.06833        -0.07672
C         25.88638        24.97743         2.84130
C         24.69408        25.70287         2.93760
C         25.63805        27.55333         1.64465
C         24.54545        26.97671         2.35301
C         25.59591        28.87714         1.16879
C         24.29091        29.56479         1.14181
C         25.60597        31.76618         0.93009
C         24.29065        31.09609         0.94523
C         25.65977        33.18224         1.07446
C         24.51930        33.94286         1.70513
C         25.59792        36.04909         0.74538
C         24.42771        35.38156         1.21777
C         25.55614        37.46205         0.49818
C         24.32025        38.18003         0.64538
C         25.45219        40.30088         0.01974
C         24.27193        39.61759         0.38471
C         25.42949        41.73314        -0.12545
C         24.21059        42.47654         0.04900
C         25.40643        44.62302        -0.34708
C         24.20267        43.92781        -0.11466
C         25.44295        46.04755        -0.47945
C         24.23048        46.78167        -0.32417
C         25.43318        48.85921        -0.75724
C         24.25937        48.19281        -0.44873
C         28.30084        23.33144         2.26720
C         28.22355        24.74278         1.96910
C         26.97150        25.43734         2.07549
C         28.07832        27.43139         0.84056
C         26.81098        26.71633         1.38007
C         28.04313        28.88962         0.75596
C         26.79474        29.58191         0.81854
C         28.08918        31.75108         0.91662
C         26.78161        31.01617         0.76765
C         28.03086        33.17745         0.44304
C         26.83532        33.88919         0.69501
C         27.97467        35.99090         0.05528
C         26.80896        35.32235         0.51249
C         27.95954        37.41899        -0.07524
C         26.74708        38.14560         0.14012
C         27.87699        40.24691        -0.41827
C         26.70877        39.58249        -0.08320
C         27.82678        41.66976        -0.77327
C         26.62602        42.41608        -0.41206
C         27.96115        44.59228        -0.68843
C         26.66717        43.86713        -0.33900
C         27.85905        45.99397        -1.14954
C         26.63825        46.76102        -0.83218
C         27.88394        48.87435        -1.54254
C         26.64333        48.15542        -0.97451
C         27.95056        50.33441        -1.21384
C         30.75359        23.28630         2.03123
C         29.45611        22.61683         2.19470
C         30.70013        24.76168         1.64386
C         29.38604        25.41711         1.50766
C         30.55466        27.44802         0.70526
C         29.36412        26.75142         1.03782
C         30.50814        28.84290         0.39031
C         29.27770        29.57330         0.54683
C         30.44723        31.67424         0.03772
C         29.28587        30.98567         0.43970
C         30.39571        33.08800        -0.19025
C         29.19907        33.82977        -0.02707
C         30.31714        35.95387        -0.72938
C         29.17562        35.26519        -0.26265
C         30.34166        37.38775        -0.73295
C         29.16917        38.09442        -0.40617
C         30.40007        40.27445        -0.81696
C         29.20797        39.58230        -0.21005
C         30.40709        41.65151        -0.97924
C         29.13748        42.40193        -1.07488
C         30.40519        44.55148        -1.07699
C         29.18266        43.85620        -1.02122
C         30.43402        45.97441        -1.08476
C         29.20008        46.72382        -1.33898
C         30.38189        48.85117        -0.91841
C         29.18551        48.17215        -1.21269
C         30.37129        50.27298        -0.81957
C         29.13156        50.96291        -0.93515
C         33.21967        20.41101         1.64010
C         32.07171        21.14937         1.93321
C         33.02931        23.18540         0.98234
C         31.96729        22.52424         1.63731
C         33.03130        24.59443         0.72275
C         31.86234        25.36436         0.96780
C         32.98271        27.40683         0.19182
C         31.79961        26.72955         0.61776
C         32.94171        28.80529        -0.09912
C         31.69297        29.53280         0.00382
C         32.84647        31.64652        -0.58495
C         31.65689        30.93834        -0.23120
C         32.85457        33.02676        -0.76810
C         31.54933        33.72151        -0.83895
C         32.82135        35.84916        -1.62043
C         31.48567        35.18291        -1.21602
C         32.76180        37.38799        -1.51890
C         31.55769        38.10783        -1.06407
C         32.85493        40.24409        -1.05765
C         31.60701        39.51541        -0.99448
C         32.86219        41.66875        -0.97028
C         31.63659        42.39106        -1.03349
C         32.86569        44.52330        -0.85060
C         31.64441        43.81013        -1.02478
C         32.86381        45.94552        -0.73070
C         31.63957        46.68783        -0.86815
C         32.83711        48.79874        -0.42950
C         31.63144        48.11004        -0.76258
C         32.84246        50.21484        -0.28418
C         31.67159        51.03934        -0.77630
C         32.70904        52.96506         0.41357
C         31.59286        52.36188        -0.05784
C         35.54593        18.85765         0.73741
C         35.48946        20.26666         0.59435
C         34.28628        20.97746         0.92537
C         35.43216        23.10003         0.02538
C         34.14758        22.36971         0.49271
C         35.43779        24.56402         0.05798
C         34.22165        25.26273         0.25591
C         35.41121        27.37662        -0.23586
C         34.20391        26.68478         0.07612
C         35.37590        28.78957        -0.43052
C         34.14018        29.47108        -0.41671
C         35.33842        31.66332        -0.39302
C         34.12176        30.90063        -0.89492
C         35.31261        33.11735        -0.82570
C         34.08569        33.76676        -0.88754
C         35.32251        35.97156        -1.11274
C         34.00262        35.27893        -0.80727
C         35.34040        37.36516        -1.21577
C         34.08594        38.12780        -1.40068
C         35.31553        40.23824        -0.90582
C         34.08453        39.55388        -1.05929
C         35.31900        41.65391        -0.75302
C         34.09018        42.37535        -0.82404
C         35.30850        44.48905        -0.45809
C         34.08984        43.79658        -0.72283
C         35.29523        45.90506        -0.29331
C         34.07419        46.63407        -0.44226
C         35.25316        48.69379         0.17119
C         34.05903        48.04699        -0.23907
C         35.17193        50.10470         0.57490
C         33.98382        50.88765         0.20355
C         35.22151        53.00617         0.64373
C         33.98859        52.28840         0.43439
C         35.25149        54.43268         0.64521
C         37.96783        18.77723         0.39715
C         36.73514        18.14480         0.64061
C         37.95155        20.20741        -0.10791
C         36.68460        20.97862         0.22949
C         37.92792        23.09720        -0.16283
C         36.69958        22.36066         0.08101
C         37.87768        24.51032        -0.39564
C         36.65378        25.24282        -0.22396
C         37.84660        27.36634        -0.67217
C         36.64217        26.66480        -0.36884
C         37.83861        28.79308        -0.76902
C         36.61031        29.51270        -0.64833
C         37.81099        31.64277        -0.89593
C         36.61519        30.92201        -0.70310
C         37.76547        33.07372        -1.06234
C         36.56287        33.80225        -1.00868
C         37.76666        35.97169        -1.22586
C         36.55413        35.25264        -1.13811
C         37.79463        37.38456        -1.10495
C         36.56004        38.09536        -1.09868
C         37.78348        40.21425        -0.78126
C         36.55785        39.51818        -0.94545
C         37.78010        41.62774        -0.55638
C         36.54547        42.34997        -0.55315
C         37.74440        44.44987        -0.03773
C         36.53275        43.76032        -0.35341
C         37.70242        45.83953         0.20499
C         36.50212        46.58823         0.04275
C         37.72411        48.70861         0.55934
C         36.47993        48.00026         0.27905
C         37.74285        50.14067         0.69407
C         36.48046        50.86527         0.83869
C         37.70090        53.02514         0.68262
C         36.46514        52.32526         0.70444
C         37.69720        54.45288         0.68012
C         36.44091        55.12281         0.67466
C         40.50730        16.00974         0.69953
C         39.27501        16.70241         0.70261
C         40.52762        18.81214         0.32390
C         39.19626        18.07303         0.42715
C         40.45510        20.24269        -0.16453
C         39.21477        20.98562         0.28738
C         40.34000        23.07135        -0.62302
C         39.15768        22.41339        -0.19976
C         40.26799        24.45735        -0.94066
C         39.07385        25.19792        -0.76238
C         40.25264        27.36462        -1.12654
C         39.06300        26.64440        -0.88632
C         40.28966        28.79053        -1.09179
C         39.05661        29.51322        -0.95071
C         40.29850        31.63962        -1.14180
C         39.05437        30.93317        -1.01242
C         40.30707        33.05357        -1.23716
C         39.02132        33.74722        -1.42624
C         40.30725        35.96481        -1.25556
C         39.03231        35.26864        -1.47651
C         40.29317        37.38048        -1.08953
C         39.03923        38.09259        -1.02501
C         40.25801        40.21452        -0.69911
C         39.02848        39.49893        -0.83478
C         40.24595        41.62130        -0.46618
C         39.00362        42.32664        -0.36327
C         40.22209        44.40346         0.12321
C         38.99690        43.72509        -0.05534
C         40.23508        45.79524         0.58907
C         38.90578        46.54269         0.65573
C         40.20226        48.69256         1.07174
C         38.92365        48.00586         0.65316
C         40.20575        50.16845         0.75982
C         38.96170        50.86356         0.71414
C         40.17440        53.01297         0.70672
C         38.94835        52.30374         0.69934
C         40.17078        54.44865         0.72514
C         38.94300        55.16980         0.71221
C         40.17183        57.27907         0.79192
C         38.98124        56.59679         0.74038
C         42.93701        15.98384         0.27338
C         41.65949        16.61101         0.21879
C         42.81948        18.68583        -0.66965
C         41.52464        17.95087        -0.46758
C         42.70543        20.05773        -1.27953
C         41.53879        20.87481        -0.71038
C         42.72739        22.99468        -1.28801
C         41.54934        22.32278        -0.89783
C         42.75462        24.40505        -1.40037
C         41.47140        25.11630        -1.45262
C         42.76253        27.33979        -1.38228
C         41.47374        26.64981        -1.50878
C         42.76095        28.75434        -1.30840
C         41.52001        29.48663        -1.24567
C         42.75123        31.65055        -1.33539
C         41.53674        30.92520        -1.23906
C         42.75858        33.06361        -1.25066
C         41.51657        33.78101        -1.25319
C         42.75547        35.93588        -1.13131
C         41.51755        35.23222        -1.23311
C         42.76290        37.36780        -1.08600
C         41.51770        38.09073        -1.03060
C         42.71402        40.24072        -0.77875
C         41.50589        39.52165        -0.84091
C         42.71818        41.63783        -0.49013
C         41.47271        42.33543        -0.34745
C         42.69270        44.46577         0.01131
C         41.46407        43.73656        -0.08426
C         42.68992        45.88329         0.20433
C         41.47256        46.59281         0.44802
C         42.67468        48.72723         0.50526
C         41.45898        47.98067         0.60575
C         42.67583        50.15274         0.60969
C         41.42205        50.86817         0.69389
C         42.65424        53.01317         0.70491
C         41.42288        52.30455         0.68561
C         42.65469        54.44687         0.76812
C         41.41165        55.15494         0.76732
C         42.64522        57.27486         0.87037
C         41.41176        56.57870         0.81009
C         44.06989        16.66734        -0.07114
C         45.27120        18.76378        -0.78582
C         44.04132        18.05567        -0.50367
C         45.22260        20.12882        -1.24734
C         44.01779        20.81097        -1.33522
C         45.22020        23.01416        -1.86292
C         43.90006        22.22447        -1.87731
C         45.21138        24.46188        -1.51621
C         43.97990        25.14631        -1.46830
C         45.19463        27.30452        -1.22507
C         43.97044        26.59847        -1.36652
C         45.19255        28.73074        -1.28036
C         44.00583        29.44907        -1.35150
C         45.27762        31.63745        -1.24423
C         44.02626        30.92392        -1.69716
C         45.24676        33.08957        -1.10988
C         44.00216        33.79194        -1.16560
C         45.22373        35.93678        -0.97743
C         43.99498        35.21738        -1.09369
C         45.23613        37.37406        -0.99942
C         43.99309        38.06726        -1.07778
C         45.22915        40.18673        -0.68921
C         43.97380        39.56482        -1.25996
C         45.20113        41.62060        -0.27962
C         43.93007        42.35958        -0.32036
C         45.17002        44.46748         0.05299
C         43.93450        43.75960        -0.09662
C         45.15196        45.88125         0.19367
C         43.91553        46.60325         0.21957
C         45.14128        48.74746         0.29416
C         43.91143        48.02729         0.33211
C         45.14967        50.18091         0.41107
C         43.90076        50.87657         0.56204
C         45.13218        53.02299         0.70917
C         43.89959        52.30357         0.66075
C         45.13463        54.44737         0.81710
C         43.87849        55.16827         0.82938
C         43.84077        56.58731         0.88401
C         47.72999        18.75260        -0.71445
C         46.52705        18.15068        -0.49161
C         47.81585        20.04541        -1.40762
C         46.50782        20.77243        -1.66568
C         47.79726        23.02680        -1.57520
C         46.52224        22.27071        -1.85320
C         47.68327        24.46044        -1.19281
C         46.44486        25.14936        -1.27989
C         47.63268        27.27206        -0.83282
C         46.43521        26.57634        -1.09559
C         47.54657        28.74157        -0.50101
C         46.51982        29.44591        -1.39108
C         47.69316        31.60232        -0.79493
C         46.44533        30.92974        -1.08736
C         47.76317        33.07860        -1.11858
C         46.44826        33.80032        -0.95942
C         47.68435        35.93800        -0.71638
C         46.45592        35.22456        -0.89046
C         47.69515        37.36214        -0.71594
C         46.48826        38.06245        -0.91206
C         47.73605        40.24231        -0.51735
C         46.53804        39.56054        -1.13394
C         47.69993        41.63960        -0.25348
C         46.46870        42.36146        -0.21743
C         47.66104        44.44536         0.19209
C         46.43687        43.75294        -0.00098
C         47.62727        45.87805         0.64768
C         46.36869        46.61673         0.29487
C         47.64057        48.73226         0.11481
C         46.36285        48.00918         0.26813
C         47.64635        50.23706         0.16411
C         46.36419        50.91488         0.42760
C         47.62885        53.02770         0.69852
C         46.37986        52.31710         0.62857
C         47.58156        54.42576         0.84229
C         46.37470        55.11450         0.89128
C         50.28377        20.17994        -1.03601
C         49.09406        20.80042        -1.26579
C         50.18667        23.01978        -0.60107
C         49.08303        22.28533        -1.34739
C         50.14313        24.49905        -0.95990
C         48.87723        25.17095        -0.93187
C         50.10168        27.31516        -0.55344
C         48.86935        26.59665        -0.78158
C         50.06403        28.73865        -0.35517
C         48.87940        29.44656        -0.47495
C         50.11442        31.60024        -0.23896
C         48.84256        30.88734        -0.51346
C         50.16293        33.08065        -0.20370
C         48.92228        33.82678        -0.51237
C         50.12833        35.94559        -0.10774
C         48.89764        35.19653        -0.45766
C         50.14670        37.40658        -0.27479
C         48.94288        38.09295        -0.50436
C         50.16346        40.21963        -0.08461
C         48.94106        39.52665        -0.39146
C         50.16082        41.63259         0.05989
C         48.92251        42.33801        -0.00080
C         50.12191        44.45540         0.42016
C         48.88444        43.74748         0.20621
C         50.10498        45.87652         0.42911
C         48.89501        46.62898         0.36374
C         50.12764        48.77939         0.35553
C         48.91433        48.02354         0.33404
C         50.15726        50.19409         0.37960
C         48.92464        50.93332         0.42235
C         50.16073        52.99872         0.74593
C         48.90089        52.31791         0.63303
C         51.49705        20.91378        -0.75396
C         52.73171        22.92494        -0.02992
C         51.52162        22.26417        -0.57469
C         53.06347        24.21507        -0.46591
C         51.26760        25.29599        -1.10125
C         52.64792        27.31142        -0.44914
C         51.34625        26.65868        -0.69464
C         52.65157        28.68490        -0.27977
C         51.35993        29.42597         0.01122
C         52.66055        31.58386        -0.61348
C         51.37439        30.84268        -0.50636
C         52.63824        33.06796        -0.54021
C         51.47916        33.75531        -0.39221
C         52.68030        35.99118        -0.42702
C         51.47058        35.21524        -0.17840
C         52.63461        37.36510        -0.12602
C         51.38533        38.08856        -0.08227
C         52.62303        40.23602         0.22394
C         51.39720        39.51349         0.01821
C         52.63590        41.65799         0.38397
C         51.39008        42.33587         0.30282
C         52.57150        44.44989         0.77094
C         51.35864        43.75059         0.47220
C         52.39954        45.82232         1.06528
C         51.31724        46.57609         0.61878
C         52.68741        48.78164         0.17294
C         51.38923        48.02187         0.30431
C         52.66323        50.24864         0.30794
C         51.42541        50.91386         0.43384
C         51.35305        52.33693         0.61802
C         54.61856        23.15941         1.48265
C         53.55896        22.39916         0.98314
C         54.83020        24.51030         1.11222
C         53.93761        25.09136         0.17736
C         55.07890        27.33530         0.41344
C         53.93770        26.54464        -0.20873
C         55.01275        28.81226         0.45544
C         53.86486        29.47048        -0.03380
C         55.05571        31.63963         0.12370
C         53.89120        30.88594        -0.17955
C         55.12841        33.07328        -0.09350
C         53.96576        33.72130        -0.85656
C         55.20744        36.00227        -0.55484
C         53.92689        35.25942        -0.77561
C         55.08945        37.45089        -0.21695
C         53.85249        38.11752         0.03903
C         55.09913        40.23850         0.50993
C         53.84398        39.50921         0.26360
C         55.12897        41.70936         0.50948
C         53.88258        42.40372         0.53755
C         55.13439        44.55879         0.59303
C         53.87193        43.82632         0.69557
C         55.26231        45.98298         0.44995
C         54.23792        46.91151         0.82628
C         55.11063        48.77733        -0.55801
C         54.02246        48.12235         0.24462
C         55.11069        50.23563        -0.10392
C         53.96875        50.88066         0.27306
C         57.03675        24.65740         2.32422
C         55.93240        25.30905         1.65066
C         56.99223        27.50717         2.03288
C         56.00101        26.66451         1.35858
C         57.19737        28.90170         1.60499
C         56.12779        29.55896         0.90669
C         57.34807        31.69897         1.08308
C         56.17829        30.96985         0.70006
C         57.42023        33.10454         0.82926
C         56.29394        33.76666         0.19948
C         57.77033        35.85272         0.07397
C         56.34898        35.28656         0.18257
C         58.05170        37.14099        -0.41245
C         56.18798        38.22584        -0.49457
C         57.66396        40.27683        -0.15206
C         56.40627        39.52330         0.09618
C         57.65178        41.70065         0.23393
C         56.37307        42.39112         0.46780
C         57.60155        44.52318         0.26342
C         56.35922        43.82070         0.47281
C         57.61753        45.83501        -0.17854
C         56.41429        46.61232        -0.12001
C         57.67262        48.62847        -0.71976
C         56.41896        48.00190        -0.43172
C         58.14681        25.32965         2.73066
C         59.41175        27.54833         2.86402
C         58.15997        26.79166         2.76304
C         59.45979        28.87312         2.57116
C         58.34210        29.59849         1.99600
C         59.54858        31.77400         2.13594
C         58.43194        31.01962         1.72539
C         59.62223        33.13630         1.88617
C         58.59062        33.82399         1.22104
C         59.89473        36.00213         1.23878
C         58.76597        35.23624         0.86491
C         59.99335        37.36424         0.94502
C         59.06331        37.98500         0.08908
C         60.18736        40.27669         0.20918
C         59.02986        39.46796        -0.16055
C         60.10621        41.63592         0.31549
C         58.86953        42.36367         0.30923
C         60.12334        44.59211         0.26133
C         58.88251        43.83409         0.67401
C         60.10957        45.78330        -0.34635
C         58.84064        46.42244        -0.84048
C         58.84240        47.92652        -0.80052
O         51.97599        31.01705        -1.80726
O         57.02980        27.36291         3.49038
O         31.13886        34.16853        -2.20764
O         34.46122        22.55970        -0.92825
O         54.76343        35.76415        -1.91030
O         57.15329        37.68146        -1.34384
O         33.39836        37.95817        -2.70341
O         55.97505        39.59641         1.49326
O         41.29950        25.84371        -2.72264
O         58.35882        39.93290        -1.36977
O         47.19135        20.05803        -2.74311
O         53.35942        46.48157         1.82627
O         35.63845        50.35585         1.93898
O         48.78806        22.82023        -2.66349
O         45.94917        22.73263        -3.12045
O         55.11174        26.87936        -1.00111
O         38.97985        34.46720        -2.71121
O         31.00897        24.33205         3.02580
O         50.10438        32.29289         1.05892
O         27.59764        44.39140         0.72344
O         52.01678        48.26481        -1.06103
O         52.42055        24.69602        -1.60200
O         47.65698        49.52113        -1.13285
O         28.38984        46.19498        -2.48673
O         39.54058        45.97509         1.88295
O         45.16117        40.47360         0.72121
O         50.80985        35.52763         1.11209
O         28.26923        41.92120        -2.18346
O         27.17137        26.70372        -0.04115
O         24.01392        30.19190        -0.16119
O         58.73722        46.07188        -2.26667
H         57.92756        46.50439        -2.61332
O         33.11600        35.49233        -2.97151
H         32.39431        35.81077        -3.55091
O         47.59081        45.79770         2.13422
H         46.83579        45.21825         2.37452
O         35.24105        31.70253         1.06840
H         36.09745        32.02581         1.41843
O         54.19868        33.34263        -2.23930
H         54.69287        34.08407        -2.66320
O         48.03673        33.10799        -2.57682
H         47.30329        32.62992        -3.02131
O         33.69195        35.59015         0.58815
H         34.37925        35.17931         1.15401
O         24.86065        34.03721         3.13579
H         25.77841        34.37753         3.19768
O         31.97370        51.36225        -2.19225
H         32.77267        51.93135        -2.19311
O         42.32138        19.81386        -2.68771
H         42.55876        20.64070        -3.19232
O         34.22958        30.85520        -2.34569
H         33.39890        30.48069        -2.70575
O         40.95423        17.67554        -1.77551
H         41.24908        18.39300        -2.39133
O         39.23887        21.03253         1.75586
H         39.85873        21.74514         2.01966
O         51.34755        29.54676         1.47250
H         51.26554        28.64747         1.85270
O         40.22753        48.59337         2.54433
H         40.05230        47.64217         2.75325
O         47.01050        28.83879         0.85567
H         47.70765        28.55161         1.48143
O         41.03086        18.90725         1.68960
H         40.39912        19.49404         2.17094
O         49.75293        22.99808         0.80662
H         50.49535        23.32587         1.35738
O         44.10308        30.94998        -3.17619
H         43.24886        30.61069        -3.52099
O         37.98487        20.11037        -1.56034
H         37.15791        19.67609        -1.85694
O         55.98625        35.64653         1.56748
H         56.62528        35.21246         2.17298
O         28.28358        31.86044         2.40150
H         29.17083        32.25624         2.54225
O         29.46045        39.75309         1.25660
H         28.76111        39.25074         1.72874
O         44.01421        39.81006        -2.71970
H         43.24229        39.35201        -3.11668
O         46.69799        39.77101        -2.56935
H         45.81120        39.64658        -2.98938
O         46.96443        29.33145        -2.76500
H         46.26481        29.71823        -3.33548
O         54.76250        48.75941        -1.97789
H         53.78017        48.74097        -2.04169
O         43.51927        22.09751        -3.28951
H         44.36919        22.09537        -3.79885
O         27.71114        48.79267        -3.00123
H         27.84810        47.84332        -3.24322
O         58.87530        43.86215         2.14290
H         58.78622        44.79811         2.42088
H         22.45317        27.24900         2.95191
H         22.17823        29.40825         1.79995
H         22.12996        31.41851         1.30024
H         22.29592        33.73904         1.93874
H         22.34478        35.63003         1.76019
H         22.23066        37.99336         1.20283
H         22.13942        39.85737         0.78735
H         22.08729        42.26290         0.48659
H         22.04331        44.18714         0.17325
H         22.08458        46.63657         0.03574
H         25.96506        24.01991         3.37507
H         23.85649        25.28328         3.51301
H         25.40814        49.95196        -0.86212
H         23.32685        48.76058        -0.31745
H         27.35834        22.79187         2.43901
H         27.04773        50.94439        -1.35537
H         29.41952        21.51978         2.25542
H         29.11805        52.05639        -0.82424
H         33.27248        19.36746         1.97898
H         31.25544        20.65357         2.47583
H         32.63221        53.97207         0.84816
H         30.63840        52.90464        -0.02205
H         34.62697        18.30510         0.97515
H         34.31125        54.99893         0.61034
H         36.70229        17.06525         0.84227
H         36.40587        56.22010         0.67882
H         40.54497        14.97832         1.08126
H         38.36846        16.13377         0.95459
H         40.17984        58.37821         0.82001
H         38.04498        57.16983         0.72753
H         43.00865        14.94763         0.63701
H         42.63951        58.37371         0.90673
H         45.02966        16.13878        -0.01506
H         44.77572        57.16077         0.93057
H         48.64936        18.26771        -0.36054
H         46.53838        17.16971         0.00027
H         48.51070        55.00733         0.90292
H         46.40932        56.20728         0.98934
H         50.35079        19.08306        -1.02996
H         50.18091        54.08448         0.90914
H         52.42476        20.33585        -0.63194
H         52.28642        52.91363         0.67755
H         55.27394        22.69911         2.23393
H         53.38370        21.38584         1.37155
H         56.04878        50.81056        -0.14551
H         54.03786        51.95208         0.51832
H         57.04100        23.55957         2.36728
H         57.69403        49.72070        -0.85244
H         59.04591        24.78222         3.04962
H         60.32448        27.01386         3.16666
H         60.41792        29.39607         2.69359
H         60.38446        31.29409         2.66034
H         60.52135        33.67715         2.20865
H         60.68059        35.55348         1.86049
H         60.82022        37.94243         1.38042
H         61.14472        39.77645         0.41446
H         61.02728        42.18988         0.54300
H         61.08817        44.17937         0.59489
H         61.05742        46.30049        -0.56454
H         59.78360        48.45091        -1.02327
