         261
 CSIRO Nanostructure Databank - Neutral Graphene Oxide Data Set
C        -10.99768         0.69281         0.50302
C         -9.88952         1.52676        -0.13704
C         -8.64760         0.67747         0.08586
C         -7.38721         1.25728         0.63504
C         -6.09473         0.51808         0.33668
C         -4.76563         1.24413         0.19410
C         -3.59147         0.60774        -0.48974
C         -2.37305         1.45360        -0.81044
C         -1.18330         0.71976        -1.37279
C          0.10777         1.48727        -1.24713
C          1.35742         0.70413        -0.91054
C          2.36572         1.37026        -0.02149
C          3.68941         0.66446         0.12614
C          4.94267         1.43498        -0.12436
C          6.20602         0.71960        -0.46338
C          7.47054         1.50415        -0.38145
C          8.72853         0.73892        -0.10296
C          9.99074         1.53390         0.07299
C         11.26169         0.75961         0.09719
C         -9.71263         2.96259         0.30841
C         -8.52827         3.57509         0.68070
C         -7.36801         2.69991         1.19720
C         -5.88302         3.19570         1.21890
C         -4.84782         2.75693         0.15233
C         -3.73440         3.61583        -0.41289
C         -2.41227         2.96277        -0.78300
C         -1.20214         3.79962        -1.22392
C          0.08929         3.02448        -1.06833
C          1.13097         3.65888        -0.19096
C          2.34342         2.84729         0.18106
C          3.66645         3.56279         0.29275
C          4.86044         2.91690        -0.38665
C          6.14680         3.66217        -0.51638
C          7.41299         2.97864        -0.01373
C          8.72180         3.69217        -0.29299
C          9.91937         2.98179        -0.21526
C         -8.53920         4.99096         0.95843
C         -7.38625         5.82006         1.00645
C         -6.18745         5.32796         0.25427
C         -4.78668         5.77502         0.64118
C         -3.59470         5.05176         0.09326
C         -2.51028         5.93340        -0.48273
C         -1.23996         5.35435        -1.15209
C          0.06199         5.97344        -0.53414
C          1.07785         5.11167         0.18399
C          2.35752         5.79197         0.67151
C          3.67583         5.02776         0.58313
C          4.89595         5.76872         0.08820
C          6.22579         5.02513         0.12081
C          7.43277         5.83168        -0.32522
C          8.65648         5.10175        -0.45086
C         -7.35499         7.18478         1.28555
C         -6.07456         7.94141         1.32317
C         -4.76382         7.23515         1.03119
C         -3.49846         8.01491         0.76817
C         -2.50615         7.40994        -0.18936
C         -1.26308         8.27408        -0.62311
C          0.07232         7.45271        -0.36190
C          1.05131         8.14516         0.69647
C          2.38114         7.29321         0.74258
C          3.70630         8.01160         0.53799
C          4.84898         7.25103        -0.10798
C          6.10692         8.00017        -0.59856
C          7.38359         7.20969        -0.40981
C         -6.04398         9.42028         1.21383
C         -4.90655        10.12994         1.03559
C         -3.56868         9.52343         0.85445
C         -2.40653        10.29975         0.37927
C         -1.22273         9.65646         0.03284
C          0.02205        10.33559         0.09283
C          1.23621         9.61089         0.26203
C          2.47168        10.22818         0.24808
C          3.74242         9.51341         0.44228
C          5.03350        10.15934         0.07356
C          6.14483         9.45491        -0.19110
C        -11.02403        -0.63761         0.30389
C        -10.04712        -1.36630        -0.61155
C         -8.69697        -0.64565        -0.63284
C         -7.45675        -1.44023        -0.78150
C         -6.18011        -0.84231        -0.26582
C         -4.98386        -1.49296        -0.88684
C         -3.71248        -0.76055        -1.09788
C         -2.45820        -1.57591        -1.31286
C         -1.17126        -0.80233        -1.47129
C          0.12971        -1.55172        -1.38537
C          1.38112        -0.80308        -0.99318
C          2.44784        -1.60173        -0.28176
C          3.64041        -0.84598         0.35459
C          5.01306        -1.54566         0.11933
C          6.22022        -0.79567        -0.39553
C          7.52963        -1.52309        -0.57494
C          8.80928        -0.72033        -0.50588
C         10.09850        -1.43839        -0.19894
C         11.28139        -0.59017         0.13655
C         -9.88767        -2.85913        -0.30209
C         -8.76910        -3.59644        -0.47685
C         -7.45708        -2.98316        -0.97198
C         -6.26842        -3.58982        -0.18639
C         -4.93398        -2.90637        -0.37207
C         -3.63607        -3.63191        -0.26731
C         -2.42734        -3.03313        -0.94719
C         -1.09818        -3.71353        -0.63460
C          0.10628        -3.06917        -1.30965
C          1.39080        -3.81724        -1.22599
C          2.54678        -3.06512        -0.60538
C          3.88889        -3.77789        -0.66177
C          5.07213        -3.02466        -0.07578
C          6.37323        -3.77644        -0.23234
C          7.64498        -3.02083        -0.36309
C          8.90352        -3.64498         0.13182
C         10.05864        -2.87431         0.16975
C         -8.79567        -5.12769        -0.46344
C         -7.48189        -5.85147        -0.11454
C         -6.27547        -5.03344         0.19982
C         -4.96372        -5.75119         0.43479
C         -3.62797        -5.09247         0.09943
C         -2.39529        -5.89561        -0.20209
C         -1.18653        -5.23287        -0.82509
C          0.07902        -6.03900        -0.91143
C          1.40494        -5.32225        -1.02660
C          2.66635        -6.03133        -0.64501
C          3.81896        -5.20156        -0.13654
C          5.07419        -5.85228         0.36006
C          6.36337        -5.05644         0.58958
C          7.66766        -5.82231         0.52496
C          8.86138        -5.04124         0.45990
C         -7.44396        -7.20347        -0.06290
C         -6.29497        -8.02484         0.50697
C         -4.97611        -7.23617         0.56365
C         -3.74370        -8.02804         0.20952
C         -2.48803        -7.39820        -0.28091
C         -1.20698        -8.18486        -0.18409
C          0.09097        -7.47566        -0.40464
C          1.27582        -7.90286         0.45858
C          2.59854        -7.44855        -0.13275
C          3.85449        -8.09181         0.33454
C          5.15974        -7.33923         0.22534
C          6.43195        -8.02180         0.60037
C          7.65452        -7.19464         0.77526
C         -6.07874        -9.38600        -0.13874
C         -4.94112       -10.08573         0.02434
C         -3.77850        -9.44691         0.77802
C         -2.42844       -10.13101         0.78294
C         -1.22605        -9.47975         0.56303
C          0.03602       -10.06934         0.88378
C          1.28009        -9.37522         0.83251
C          2.47800        -9.96834         1.21264
C          3.75827        -9.17273         1.39727
C          5.06655        -9.94967         1.42740
C          6.26345        -9.41377         1.11286
O         -0.77698        -5.81138        -2.07431
O         -4.87832         3.23890        -1.22006
O         -3.74391         0.60173         0.97699
O         -0.40954        -8.38458        -1.40843
O          3.93305         4.07736         1.63438
O         -6.40634         4.94407        -0.88643
O         -7.72546         2.60942         2.58793
O         -2.62922        -2.62434        -2.31467
O          4.01595        -5.42198         1.28273
O         -3.03073         8.65793         1.95801
O          9.68856        -1.08141        -1.59692
O          2.31734        -5.90113        -2.04302
O          1.98321         0.02432        -2.03715
O          4.46633         6.33828        -1.19540
O         -0.32838         3.54538        -2.35383
O         -3.45768        -7.93906        -1.22564
O          1.94796         1.91980         1.24856
O          6.66250        -1.27096        -1.70929
O          5.35061         3.40772        -1.68047
O         -6.01056        -0.68484         1.16438
O          0.76593        -3.55463        -2.51139
O          5.14658        -2.46256         1.26539
O         -1.31121         8.48529        -1.96760
O          4.48659         1.21215         1.22757
O         -4.12948        -2.85216         0.85927
O         -0.43338        -1.17724        -2.66442
O          2.02134        -2.61431         0.68442
O          0.40271         8.08977         1.86915
O         -0.50551         1.23003        -2.53542
O         -4.89488        -6.40481         1.75006
O          3.26807        -8.43921        -0.95174
O          2.32500         6.48295         1.94332
O          6.85918         1.22834        -1.66349
O          6.24419        -4.69462         2.04021
O          0.73255         6.89227        -1.47350
O         -2.63166        -5.37944         1.14795
O          3.99950         8.78558         1.72270
O          7.14602         3.20734         1.42883
O         -7.33620        -3.33141        -2.30808
O          9.16459         1.05806         1.24336
O          0.48575         4.14365         1.06118
O         -1.96929         2.18872         0.38733
O         -8.28597         0.46555         1.47341
O         -3.18608         6.89815        -1.36241
O          6.55254         4.59879         1.51044
O         -8.00769        -0.69192        -1.91297
O         -3.84064         5.08572         1.51939
O         -6.55413        -3.96928         1.18088
O          1.19854        -7.10445         1.71811
O          7.06112        -3.79601        -1.48565
O         -4.65407        -0.99776        -2.20219
O         -5.20639         7.40287         2.39895
O          5.99725        -7.84728        -0.83736
O          6.02395         8.09675        -2.05494
H          5.61103         7.26022        -2.37741
O          3.38364        -0.88229         1.76608
H          3.20491        -1.81283         2.02770
O         -0.82453        -3.47131         0.76585
H         -1.53331        -3.90963         1.30365
O         -5.46437         3.53726         2.31009
H         -6.95842         2.93833         3.11879
O          3.64404        -8.51377         2.69149
H          2.81788        -7.97537         2.68934
O         -9.82965        -5.59794         0.39904
H         -9.58298        -5.38552         1.32255
O          7.27561        -3.73149         2.36215
H          6.73332        -2.92696         2.57114
O        -10.59505        -1.25277        -1.95277
H         -9.86177        -1.48428        -2.57052
O         -6.65881        -8.30542         1.89379
H         -6.50782        -7.46733         2.39205
O          4.21406        -3.87324        -2.06407
H          3.57693        -4.49168        -2.50059
O         -0.11811        -7.38625         2.29972
H         -0.11571        -6.79458         3.09204
O         -1.27352         5.77374        -2.51034
H         -1.33264         6.77293        -2.53392
O         -4.12447        -9.38252         2.18147
H         -5.08652        -9.14691         2.26071
O        -10.16126         1.60601        -1.55624
H        -10.44180         0.70973        -1.87094
H         12.24080        -1.11162         0.27613
H         12.19774         1.32201         0.23351
H         10.86719         3.51952        -0.37261
H          9.58388         5.66014        -0.65020
H          8.31564         7.74569        -0.65226
H          7.09471         9.98328        -0.36216
H          5.09369        11.25091         0.20562
H          2.53601        11.27708        -0.08629
H          0.03306        11.43314         0.20831
H         -2.38868        11.38020         0.60561
H         -4.97051        11.22464         0.94012
H         -7.00485         9.95319         1.27466
H         -8.27549         7.71003         1.58797
H         -9.52340         5.46553         1.11168
H        -10.57391         3.62057         0.10064
H        -11.75813         1.17700         1.13457
H        -11.83029        -1.23689         0.75558
H        -10.81266        -3.39112        -0.01919
H         -9.07774        -5.44225        -1.50483
H         -8.37064        -7.75998        -0.27708
H         -6.92680        -9.83362        -0.67940
H         -4.83664       -11.09206        -0.40852
H         -2.39993       -11.12478         1.25887
H          0.03972       -11.09835         1.27691
H          2.46762       -11.02391         1.52861
H          5.02864       -10.98790         1.79277
H          7.17109       -10.02952         1.21551
H          8.61154        -7.72347         0.91374
H          9.82102        -5.55163         0.64029
H         10.99108        -3.32362         0.54527
