         324
 CSIRO Nanostructure Databank - Neutral Graphene Oxide Data Set
C          1.68323         1.94444        -0.26922
C          1.56152         3.34367        -0.17309
C          2.86749         1.32003         0.07578
C          2.63607         4.13142         0.24328
C          1.29452         6.34871         0.06042
C          1.21978         7.68452         0.24007
C          2.47249         5.58143         0.51518
C          2.38950         8.49241         0.65158
C          1.11896        10.75924         0.22514
C          1.13576        12.10887         0.07058
C          2.35633        10.02680         0.53624
C          2.36540        12.86108         0.13604
C          1.18764        15.06194         0.39942
C          1.23035        16.41831         0.65295
C          2.37900        14.28718         0.27414
C          2.46686        17.10119         0.81020
C          2.52989        18.49806         1.11064
C          3.99259         2.09077         0.47252
C          3.89309         3.51333         0.52428
C          5.21318         1.46630         0.84838
C          5.08079         4.28191         0.78904
C          3.75465         6.39948         0.76254
C          3.71079         7.84802         0.54426
C          5.04503         5.71154         0.73008
C          4.88284         8.56528         0.32237
C          3.62425        10.71236         0.21744
C          3.59180        12.13535         0.07975
C          4.83865        10.00542         0.09293
C          4.83268        12.83648        -0.02783
C          3.63526        14.96445         0.38191
C          3.67783        16.36700         0.66539
C          4.85148        14.24808         0.19848
C          4.92736        17.03726         0.81937
C          3.73337        19.14118         1.27303
C          4.97396        18.43605         1.13619
C          6.33443         2.21763         1.17419
C          6.30419         3.62979         1.06607
C          7.55778         1.53967         1.73468
C          7.53900         4.42737         1.29608
C          6.22911         6.47181         0.63975
C          6.15633         7.87459         0.35962
C          7.51406         5.84483         0.81788
C          7.34255         8.57095         0.02461
C          6.03115        10.69017        -0.32364
C          6.02903        12.12883        -0.34603
C          7.23014         9.90476        -0.49119
C          7.23122        12.92049        -0.46828
C          6.09721        14.93434         0.32658
C          6.13910        16.31693         0.65394
C          7.30649        14.24357         0.05194
C          7.40232        16.96471         0.81713
C          6.21688        19.07243         1.30482
C          7.44295        18.37257         1.16643
C          8.86317         2.20201         1.34085
C          8.87969         3.69937         1.47175
C          9.86929         1.36761         0.94851
C         10.08503         4.50935         1.13607
C          8.67670         6.57747         0.58836
C          8.62602         7.92644         0.08241
C          9.99032         5.95043         0.83701
C          9.80358         8.61493        -0.36319
C          8.36513        10.37973        -1.18074
C          8.38631        12.46351        -1.12890
C          9.66374         9.87048        -1.01525
C          9.67646        12.96283        -0.88000
C          8.57504        14.88881         0.18835
C          8.59206        16.23969         0.64057
C          9.78105        14.19416        -0.18285
C          9.87685        16.86157         1.00726
C          8.68485        19.02261         1.30681
C          9.92798        18.33539         1.20084
C         11.27114         1.75750         0.84357
C         11.35318         3.97757         1.16616
C         12.25644         1.34572         0.01297
C         12.44819         4.51622         0.41437
C         11.24587         6.65163         0.27365
C         11.10665         7.97030        -0.39060
C         12.39013         5.79982        -0.07215
C         12.19622         8.56219        -0.99020
C         10.82692        10.65197        -1.50617
C         10.86565        12.22538        -1.36173
C         12.13853         9.93184        -1.53051
C         12.18738        12.87979        -1.17586
C         11.06825        14.83582        -0.10934
C         11.14910        16.11589         0.64421
C         12.19833        14.24825        -0.68094
C         12.42668        16.89021         0.65340
C         11.13314        19.02650         1.21113
C         12.43572        18.39645         0.99906
C         13.52072         2.13212        -0.17524
C         13.56021         3.63535        -0.06049
C         14.81387         1.42141        -0.19085
C         14.87978         4.35736        -0.10291
C         13.52135         6.32116        -0.87169
C         13.46868         7.83653        -1.25260
C         14.82968         5.71897        -0.66766
C         14.73513         8.54068        -1.28091
C         13.43868        10.71888        -1.56261
C         13.37512        12.19207        -1.38731
C         14.69318        10.03176        -1.00507
C         14.67636        12.90639        -1.42951
C         13.42484        15.06791        -0.85842
C         13.52051        16.43043        -0.23655
C         14.71830        14.40389        -1.21857
C         14.82416        17.10104        -0.07334
C         13.61442        19.15533         0.58200
C         14.82156        18.50053         0.23907
C         16.03516         2.07006        -0.33236
C         16.12916         3.55492        -0.29952
C         17.24985         1.36577        -0.47639
C         17.30585         4.22318        -0.90048
C         16.00308         6.36730        -1.08879
C         15.96422         7.82776        -1.31166
C         17.22578         5.62683        -1.18469
C         17.17434         8.55014        -1.42600
C         15.96213        10.77611        -1.36784
C         15.94250        12.13632        -1.37381
C         17.15822         9.98850        -1.86958
C         17.21217        12.88992        -1.17453
C         15.98437        15.07327        -0.87179
C         16.01175        16.41365        -0.42723
C         17.25332        14.41098        -1.35222
C         17.26429        17.13180        -0.36081
C         16.04461        19.21737         0.09573
C         17.25597        18.55055        -0.18088
C         18.47454         2.03095        -0.77098
C         18.45932         3.44948        -1.09597
C         19.66588         1.29473        -0.73398
C         19.72371         4.09589        -1.52678
C         18.42844         6.32540        -1.65887
C         18.43723         7.84346        -1.66599
C         19.73842         5.58223        -1.67351
C         19.69709         8.54937        -1.30882
C         18.59193        10.73203        -1.82079
C         18.48770        12.12964        -1.20892
C         19.72588         9.91781        -1.17500
C         19.76945        12.89376        -1.16820
C         18.50613        15.03085        -0.76274
C         18.50113        16.44121        -0.45837
C         19.68873        14.31358        -0.73070
C         19.72305        17.15686        -0.27288
C         18.48832        19.26055        -0.34031
C         19.71610        18.60655        -0.39286
C         20.98304         1.85760        -1.01403
C         21.03786         3.37422        -1.36411
C         22.21340         1.24800        -0.54568
C         22.25593         4.10919        -0.98447
C         21.00398         6.34285        -1.35952
C         20.82699         7.73307        -0.81304
C         22.25087         5.59818        -0.98158
C         22.01405         8.42440        -0.19933
C         20.93040        10.59453        -0.71483
C         20.98517        12.07854        -0.83021
C         22.04453         9.90639        -0.22026
C         22.01905        12.75811         0.02609
C         20.90369        14.97094        -0.35498
C         20.92075        16.37800        -0.14567
C         22.11474        14.24003        -0.23257
C         22.17018        16.95248         0.19217
C         20.91640        19.36121        -0.78891
C         22.17302        19.04238        -0.33659
C         23.42684         1.94771        -0.61232
C         23.41997         3.40856        -0.70801
C         24.66207         1.27544        -0.47166
C         24.64055         4.12177        -0.38456
C         23.34219         6.30502        -0.24757
C         23.28753         7.67051        -0.01762
C         24.56421         5.54188        -0.07537
C         24.36172         8.37771         0.72387
C         23.28258        10.57184         0.18060
C         23.32853        12.02268         0.05649
C         24.42476         9.88172         0.64502
C         24.49527        12.72881         0.13250
C         23.33410        14.91715        -0.22515
C         23.39066        16.32982        -0.08803
C         24.58434        14.14447        -0.27056
C         24.63996        17.08403        -0.26235
C         23.49578        19.33102        -0.82718
C         24.61790        18.51401        -0.64989
C         25.89071         1.97629        -0.33070
C         25.84337         3.43022        -0.21197
C         27.10693         1.30597        -0.24316
C         27.08210         4.13693         0.02023
C         25.70393         6.19683         0.35875
C         25.60707         7.49641         1.01543
C         27.02929         5.60311         0.11041
C         26.87004         8.04006         1.52913
C         25.65028        10.62542         0.86722
C         25.71346        12.08328         0.59628
C         26.81131        10.18489         1.51282
C         27.01610        12.83203         0.63229
C         25.87101        14.90122        -0.22346
C         25.82549        16.37811        -0.29733
C         27.12581        14.26590         0.23304
C         27.14819        16.91949        -0.76377
C         25.88713        19.08561        -1.01290
C         27.08986        18.41264        -0.93983
C         28.34134         1.98065         0.27278
C         28.29508         3.48433         0.15632
C         29.65719         1.42965        -0.20704
C         29.50829         4.19520         0.49360
C         28.30339         6.34816         0.54157
C         28.12979         7.63144         1.25979
C         29.48020         5.55005         0.83753
C         29.30702         8.40717         1.86037
C         28.14013        10.66958         1.26522
C         28.26561        11.98848         0.50314
C         29.28760         9.89403         1.43955
C         29.47890        12.77917         0.91760
C         28.30055        14.98174         0.44541
C         28.35532        16.39241         0.03948
C         29.46278        14.20035         0.96663
C         29.47820        17.24051         0.07437
C         28.32681        19.07102        -1.15203
C         29.50118        18.49612        -0.68026
C         30.79884         2.14725        -0.00323
C         30.75969         3.48867         0.50586
C         31.94266         4.20231         0.88839
C         30.58553         6.16425         1.67514
C         30.59824         7.67968         1.50383
C         31.89532         5.46333         1.40750
C         31.69746         8.36990         1.10277
C         30.56524        10.54806         1.22472
C         30.61362        12.02215         1.27639
C         31.71233         9.80577         1.05356
C         31.75481        12.67123         1.77986
C         30.59462        14.78563         1.57648
C         30.65976        17.02778         0.87702
C         31.71890        14.04606         1.97158
C         31.80280        17.78732         0.77167
C         30.72958        19.22722        -0.83285
C         31.86225        18.86768        -0.15431
O          2.88343         5.94514         1.86605
O         25.37242        14.31006        -1.52208
O         22.05928         6.19502        -2.33998
O         26.25854        12.73434         1.87524
O          8.19309        11.44388        -2.07263
O         10.89720         6.73204         1.69143
O         13.13127        16.28294        -1.65209
O         24.54837         7.69884         2.00830
O         20.78999        12.61884        -2.16515
O         14.71795        13.84416        -2.59227
O         11.60298         2.75378         1.78579
O         18.33077         7.07415        -2.91855
O         13.32040         3.02474        -1.37512
O         27.85759         6.33931        -0.86113
O         12.90364        10.13134        -2.76554
O         13.26553         6.76579        -2.23011
O         17.81373        12.34077         0.07671
O          8.13631         4.21534         2.63186
O         10.58847        16.03499         1.99226
O         21.18858         2.38668        -2.39255
O         19.75069         4.73282        -2.85771
O         20.95221         7.81824         0.65436
O         19.03282        10.88868        -3.13459
O         10.66203        11.53426        -2.62947
O         15.77692         4.13363         1.02535
O         22.18876        18.20071         0.80252
O         26.70793         9.11209         2.41647
O         12.83532        17.30699         1.95398
O         30.62198        16.12764         1.94470
O          2.26935         9.34092         1.83981
O         29.18069         8.37078         3.31479
H         28.29101         8.74238         3.52762
O         16.86627         9.80949        -3.27413
H         17.69547        10.14404        -3.74883
O          7.47552         1.57430         3.17123
H          7.57748         2.51836         3.44060
O         28.36537        11.65690        -0.91003
H         29.22735        11.21416        -1.05928
O         30.26333         5.88515         3.07894
H         29.83572         6.69374         3.45950
O         27.33569        16.39548        -2.12635
H         26.76702        15.60087        -2.24300
O         21.49780        12.62442         1.39150
H         22.17593        12.95818         2.01598
O         14.54971        10.17423         0.45111
H         15.42168        10.00762         0.86882
O         28.31528         1.69351         1.73328
H         27.52346         2.13790         2.10518
O         17.33074        14.65393        -2.78790
H         16.46194        14.37900        -3.17309
H          0.81596         1.34930        -0.58637
H          0.59033         3.80692        -0.39462
H          2.95294         0.22482         0.03919
H          0.43459         5.80804        -0.36141
H          0.28609         8.20862        -0.01063
H          0.15992        10.22345         0.25241
H          0.18552        12.64068        -0.07620
H          0.20825        14.57270         0.30850
H          0.29272        16.98432         0.75308
H          1.58859        19.05683         1.21830
H          5.26222         0.36814         0.89164
H          3.75802        20.21459         1.51116
H          7.56865         0.46327         1.42975
H          6.24152        20.14398         1.55435
H          9.62123         0.30393         0.79146
H          8.70017        20.10496         1.50470
H         12.06499         0.54945        -0.72159
H         11.10393        20.12652         1.24661
H         14.79873         0.32174        -0.15257
H         13.58467        20.25396         0.62361
H         17.25020         0.26897        -0.39224
H         16.05100        20.30629         0.25339
H         19.62650         0.26084        -0.35883
H         18.45665        20.35830        -0.40229
H         22.20238         0.20272        -0.20410
H         20.78562        20.13626        -1.55918
H         24.67293         0.17566        -0.46376
H         23.64797        20.27414        -1.37675
H         27.11497         0.20672        -0.30962
H         25.90620        20.15735        -1.26760
H         29.69914         0.40711        -0.60959
H         28.34777        20.08450        -1.58012
H         31.77951         1.70535        -0.23787
H         32.91280         3.69161         0.78785
H         32.82144         5.92986         1.77456
H         32.62709         7.83819         0.85252
H         32.67150        10.30810         0.86674
H         32.63641        12.09293         2.08664
H         32.56152        14.57015         2.44031
H         32.65321        17.57833         1.43308
H         30.72305        20.11670        -1.47834
H         32.79145        19.44318        -0.26123
