         621
 CSIRO Nanostructure Databank - Neutral Graphene Oxide Data Set
C          6.21066        30.94125         0.92762
C          6.18669        32.29763         1.09919
C          8.83509        26.71297         0.04609
C          8.59651        28.12826        -0.19829
C          7.40448        28.84988         0.31724
C          8.63197        30.99773         0.33511
C          7.38650        30.20568         0.49531
C          8.61001        32.47449         0.53829
C          7.34042        33.14831         0.89455
C          8.57523        35.28269         0.95037
C          7.35133        34.50752         1.08735
C          8.64533        36.60323         1.32901
C         11.36636        22.65948        -0.88173
C         11.38026        24.06299        -0.64565
C         10.17959        24.69858        -0.31099
C         11.27336        26.90463        -0.48056
C         10.06133        26.11523        -0.25824
C         11.15308        28.29120        -0.55099
C          9.84355        28.94478        -0.55957
C         10.81349        31.20690        -0.80949
C          9.79428        30.42249        -0.37858
C         10.66882        32.69735        -1.00459
C          9.69474        33.31220        -0.02585
C         10.85614        35.47991        -0.15035
C          9.71645        34.63273         0.29142
C         11.12511        36.67389         0.69798
C          9.94224        37.31369         1.40071
C         11.15144        39.51738         1.46452
C         10.01498        38.75365         1.68224
C         11.17437        40.91614         1.75971
C         13.68191        18.45572        -1.71215
C         13.62717        19.83454        -1.88813
C         12.47770        20.54699        -1.47605
C         13.74043        22.67153        -1.51659
C         12.48440        21.95263        -1.34353
C         13.81362        24.01757        -1.01738
C         12.63198        24.81614        -0.71143
C         13.73722        27.14547        -0.61110
C         12.56280        26.22784        -0.55796
C         13.63757        28.63240        -0.74109
C         12.29867        29.27588        -0.47778
C         13.21023        31.34811        -1.75572
C         12.04687        30.53682        -1.28538
C         13.12024        32.82310        -1.62710
C         11.99958        33.42429        -1.13797
C         13.31202        35.61408        -1.00465
C         12.01403        34.87986        -0.89963
C         13.33664        36.96656        -0.58395
C         12.36733        37.46072         0.40928
C         13.42136        39.78794         0.36903
C         12.37735        38.90905         0.87271
C         13.54710        41.07645         1.05001
C         12.32666        41.71198         1.60394
C         13.54158        43.90077         1.76299
C         12.38499        43.06710         1.95889
C         13.56262        45.20558         2.25091
C         16.15199        14.20872        -1.44390
C         16.14855        15.52580        -2.16563
C         14.90204        16.31645        -1.80773
C         16.07746        18.37480        -2.45644
C         14.85357        17.67381        -1.96850
C         16.03175        19.83491        -2.78469
C         14.71116        20.62332        -2.61921
C         16.13216        22.69668        -2.18427
C         14.87554        22.01284        -2.02522
C         16.21028        24.05028        -1.69242
C         15.14147        24.51134        -0.94052
C         15.93698        27.15043        -1.87315
C         15.07046        26.63641        -0.95898
C         15.74345        28.58092        -2.21483
C         14.67281        29.33945        -1.52013
C         15.69183        31.46565        -2.19229
C         14.56095        30.71837        -1.81423
C         15.59999        32.89277        -2.49887
C         14.27516        33.63077        -2.10901
C         15.53859        35.84489        -2.26296
C         14.36442        35.03922        -1.72181
C         15.58621        37.30722        -1.76934
C         14.34694        37.87888        -1.12116
C         15.69481        40.08670        -0.76675
C         14.40794        39.32176        -0.58937
C         15.79153        41.45838        -0.17124
C         14.74217        41.91787         0.78292
C         15.90466        44.04848         0.96100
C         14.72011        43.35224         1.10896
C         15.92865        45.45999         1.37528
C         14.71334        46.08214         2.04771
C         16.10942        47.97178         2.92138
C         14.89487        47.31772         2.83952
C         16.26239        49.25948         3.51699
C         18.05743        10.84732         1.56810
C         18.20074        12.00190         0.73858
C         17.13458        12.49648         0.00036
C         18.46637        14.49767        -0.64544
C         17.22055        13.73745        -0.71966
C         18.57390        15.74389        -1.28851
C         17.38899        16.35666        -1.89778
C         18.55153        18.52549        -1.67384
C         17.35840        17.70114        -2.12296
C         18.56507        19.97327        -2.18220
C         17.36573        20.58963        -2.96283
C         18.58230        22.76991        -2.59759
C         17.30053        22.04984        -2.60657
C         18.58780        24.25389        -2.44162
C         17.35897        24.95718        -1.95340
C         18.26483        27.16727        -2.97991
C         17.23954        26.46360        -2.11902
C         18.22091        28.66899        -3.05638
C         16.94442        29.36281        -2.66087
C         18.24225        31.54750        -2.54102
C         17.03232        30.76427        -2.08797
C         18.15977        32.93905        -2.41695
C         16.88866        33.70722        -2.71161
C         18.08892        35.80725        -1.92759
C         16.86867        35.11446        -2.12174
C         18.14371        37.17937        -1.55290
C         16.92787        37.98991        -1.50890
C         18.18947        40.04817        -0.86981
C         16.96564        39.36350        -0.95160
C         18.25760        41.47511        -0.56536
C         17.10297        42.12407        -0.05280
C         18.35872        44.18199         0.35792
C         17.12679        43.43727         0.44615
C         18.42600        45.46447         0.97387
C         17.27236        45.98111         1.74293
C         18.60321        48.05573         2.37938
C         17.35425        47.28051         2.48298
C         18.68644        49.31388         2.98707
C         17.50506        49.91355         3.58647
C         18.86735        51.84847         4.28689
C         17.62757        51.20089         4.17417
C         18.97618        53.13861         4.89841
C         19.78122         7.43197         4.56917
C         20.07727         8.57760         3.77056
C         18.97221         9.22456         3.16016
C         20.51803        10.85390         2.06407
C         19.12097        10.33087         2.30972
C         20.52020        12.26767         1.55027
C         19.46045        12.74061         0.78251
C         20.74067        14.79719         0.26325
C         19.56228        14.00794         0.11390
C         20.86790        16.03637        -0.44079
C         19.79206        16.46489        -1.22985
C         21.15195        18.52056        -1.90382
C         19.83550        17.73128        -2.04849
C         21.16959        19.95459        -2.32927
C         19.86727        20.67501        -2.44692
C         21.02974        22.82480        -2.88651
C         19.87339        22.08938        -2.92850
C         21.01386        24.28648        -3.16037
C         19.69722        25.01642        -3.08618
C         20.85105        27.31051        -3.39385
C         19.59097        26.51188        -3.24919
C         20.81981        28.68773        -3.33293
C         19.51192        29.42497        -3.18369
C         20.65828        31.59982        -3.03314
C         19.48319        30.86641        -2.80063
C         20.57844        33.06737        -2.88811
C         19.35313        33.71800        -2.37577
C         20.64004        35.77341        -1.83447
C         19.34472        35.07917        -2.10298
C         20.62692        37.28094        -1.87324
C         19.43338        37.79992        -1.03850
C         20.60789        40.01845        -1.23232
C         19.41092        39.31742        -1.07044
C         20.57741        41.45030        -1.26710
C         19.46040        42.21664        -0.77730
C         20.62956        44.49002        -0.44750
C         19.49268        43.62863        -0.35011
C         20.72922        45.71274         0.28479
C         19.60787        46.22972         0.98965
C         20.89493        48.26689         1.55510
C         19.70653        47.50217         1.66822
C         21.05741        49.49804         2.28000
C         19.94673        50.00489         3.04271
C         21.36739        51.77437         4.05190
C         20.05103        51.19938         3.78603
C         21.50327        53.08765         4.81562
C         20.18784        53.79780         5.06918
C         21.50756        55.74706         5.76481
C         20.28897        55.04045         5.73951
C         21.75844        56.74644         6.71362
C         21.98600         5.03566         6.47423
C         20.78715         5.53482         5.96069
C         22.65600         7.36728         4.75696
C         20.74960         6.47915         4.90555
C         22.52360         8.75083         4.44505
C         21.37727         9.24624         3.75660
C         22.49155        11.45606         3.57162
C         21.46862        10.56109         3.20535
C         22.48687        12.77941         2.92971
C         21.63097        13.11339         1.83329
C         22.81454        15.28289         1.52133
C         21.74224        14.38847         1.19928
C         22.98183        16.52048         0.78646
C         22.03853        16.88682        -0.23102
C         23.25121        19.01297        -0.57517
C         22.18842        18.10932        -0.91391
C         23.39808        20.32384        -1.15193
C         22.39262        20.80306        -2.11942
C         23.39022        23.17342        -2.04452
C         22.34410        22.25229        -2.52532
C         23.35055        24.55430        -2.36834
C         22.19390        25.12684        -2.94696
C         23.45187        27.32474        -3.34963
C         22.14688        26.54089        -3.41954
C         23.43568        28.82322        -3.60924
C         22.03033        29.52699        -3.63672
C         22.93733        31.88077        -3.84670
C         21.87366        31.00969        -3.47931
C         23.08174        33.18144        -3.33692
C         21.85252        33.83604        -2.88077
C         23.28512        35.80096        -2.08813
C         21.94651        35.09272        -2.10434
C         23.27826        37.26563        -1.72667
C         21.96035        37.96542        -1.55089
C         23.16993        40.11825        -1.33400
C         21.90564        39.32350        -1.38800
C         23.03996        41.55914        -1.62713
C         21.77370        42.06273        -1.76821
C         23.05010        44.61817        -1.02663
C         21.77915        44.18300        -1.26935
C         23.22721        45.80070        -0.12018
C         21.93571        46.47571         0.25225
C         23.11116        48.66435         0.46386
C         21.98704        47.75336         0.79870
C         23.29223        49.90332         1.25302
C         22.26738        50.23360         2.18501
C         23.63546        52.24022         2.87847
C         22.51827        51.32070         3.13648
C         23.64937        53.54843         3.52393
C         22.58661        53.99779         4.27430
C         23.80627        56.17422         4.73599
C         22.46275        55.46645         4.61202
C         24.04430        57.21308         5.81052
C         23.00533        57.41074         6.84280
C         24.62920        58.72734         8.12110
C         23.32766        58.19705         7.95171
C         23.26859         5.61705         6.34784
C         24.78575         7.63753         6.01820
C         23.54402         6.83498         5.70439
C         24.78594         9.03122         5.40739
C         23.61931         9.60947         4.77555
C         24.77450        11.75010         4.71778
C         23.58372        10.98685         4.41585
C         24.83078        13.16055         4.64823
C         23.23111        13.86358         3.41084
C         24.73421        15.86336         3.11131
C         23.60540        14.99129         2.65282
C         24.97057        17.07510         2.22802
C         24.05321        17.37615         1.09505
C         25.34998        19.44281         0.66272
C         24.21802        18.60521         0.39620
C         25.45609        20.72617         0.08196
C         24.44412        21.18704        -0.80743
C         25.58968        23.47410        -0.88680
C         24.65792        22.49990        -1.56609
C         25.60330        24.82234        -1.34497
C         24.51770        25.40110        -2.10265
C         25.76532        27.51484        -2.38636
C         24.57275        26.73252        -2.56470
C         25.91720        28.86762        -2.91624
C         24.76067        29.52978        -3.44840
C         26.12090        31.59799        -3.73937
C         24.94617        30.81453        -3.96662
C         26.10952        33.02304        -3.86791
C         24.19158        34.05174        -3.57030
C         25.70121        35.95260        -2.88257
C         24.41922        35.25529        -2.89074
C         25.67013        37.38972        -2.51780
C         24.51129        38.01687        -2.07456
C         25.62448        40.28041        -2.22306
C         24.50044        39.45182        -1.72912
C         25.50051        41.76678        -2.10683
C         24.28356        42.40167        -1.45517
C         25.50526        44.60823        -1.27049
C         24.25841        43.92264        -1.45926
C         25.53982        45.98266        -0.75518
C         24.22816        46.71906        -0.87388
C         25.51329        48.94962        -0.47453
C         24.23458        48.16120        -0.39118
C         25.54228        50.33349         0.18326
C         24.42891        50.71750         1.09814
C         25.70618        52.82456         1.64400
C         24.55892        51.91383         1.88802
C         25.92907        53.93773         2.57778
C         24.85352        54.37665         3.37300
C         26.26079        56.20021         4.24001
C         24.98951        55.56930         4.11172
C         26.45363        57.21734         5.24038
C         25.43914        57.61236         6.09843
C         25.66039        58.43526         7.24627
C         25.96186         9.74443         5.47072
C         27.19233        11.88203         5.11100
C         26.00499        11.11797         5.07596
C         27.22403        13.23924         4.71986
C         25.98535        13.90583         4.44710
C         27.26037        15.98559         3.80966
C         25.91226        15.32316         3.96441
C         27.46741        17.03296         2.75975
C         26.30790        17.71247         2.14221
C         27.75440        19.57766         1.32362
C         26.45519        18.86923         1.41560
C         27.66686        21.03440         1.07261
C         26.58811        21.58879         0.41377
C         27.74058        23.80460         0.23690
C         26.61117        22.98319        -0.03815
C         27.89640        25.04553        -0.42896
C         26.77974        25.60381        -1.15095
C         28.18132        27.44256        -2.00291
C         26.85484        26.88947        -1.74757
C         28.36760        28.77055        -2.56978
C         27.20545        29.52937        -2.97092
C         28.48508        31.78522        -3.28371
C         27.30544        30.93115        -3.31499
C         28.37399        33.18822        -3.22035
C         27.10864        33.86898        -3.33867
C         28.22508        36.06316        -2.74941
C         26.94186        35.29955        -3.10329
C         28.09353        37.57429        -2.96461
C         26.88893        38.20580        -2.71947
C         27.94138        40.58400        -3.07899
C         26.77979        39.67515        -2.65412
C         28.06007        41.77703        -2.06596
C         26.76394        42.56232        -2.05014
C         28.09319        44.67299        -1.31075
C         26.75004        43.86828        -1.32711
C         28.06696        46.11897        -1.14132
C         26.84921        46.77744        -0.68032
C         27.98047        48.97833        -0.62697
C         26.80350        48.26209        -0.65729
C         28.01390        50.36354        -0.18609
C         26.87279        50.94379         0.34865
C         28.23516        52.92955         1.12741
C         26.91992        52.30644         0.88710
C         28.32044        54.07132         1.89250
C         27.18816        54.60568         2.61716
C         27.34584        55.70255         3.48594
C         28.45272        13.97280         4.69283
C         29.71355        16.03894         4.31520
C         28.50977        15.28815         4.25238
C         29.84918        17.29652         3.70006
C         28.83544        17.67054         2.68507
C         30.12339        19.86407         2.37323
C         28.98377        18.99200         2.00464
C         30.07687        21.17937         1.86363
C         28.79999        21.84714         1.51644
C         30.15357        23.98536         1.05179
C         28.83945        23.31366         1.09373
C         30.26442        25.20669         0.32844
C         29.16241        25.71432        -0.39666
C         30.67799        27.52152        -1.38491
C         29.38899        26.79748        -1.36480
C         30.87166        28.70513        -2.12506
C         29.70172        29.12570        -2.84020
C         30.99073        31.81897        -2.93092
C         29.81798        31.22834        -3.36146
C         30.95350        33.28855        -3.13742
C         29.61646        33.97324        -3.36243
C         30.75799        36.20068        -2.98733
C         29.48016        35.49361        -3.46985
C         30.69666        37.67764        -3.11952
C         29.32999        38.35577        -3.25226
C         30.55957        40.61338        -2.87409
C         29.28906        39.86276        -3.18321
C         30.50693        42.05771        -2.51205
C         29.27501        42.67918        -2.26428
C         30.43929        44.85632        -2.08052
C         29.26719        44.05620        -1.93864
C         30.43458        46.25724        -1.76401
C         29.23393        46.87556        -1.34182
C         30.53857        49.06960        -1.01044
C         29.26231        48.26520        -0.83370
C         30.45065        50.58905        -0.97157
C         29.27388        51.10159        -0.16662
C         29.36925        52.30470         0.48712
C         30.92884        18.15356         3.95100
C         32.20050        20.23351         3.80885
C         31.13200        19.41345         3.31001
C         32.75968        21.30830         3.08569
C         31.24795        21.93525         1.71691
C         32.68628        23.92452         1.48657
C         31.31664        23.31439         1.46586
C         32.82296        25.18306         0.69188
C         31.57987        25.69734         0.03755
C         33.52379        27.81792        -0.85573
C         31.71551        26.66737        -0.93111
C         33.32734        29.12328        -1.29822
C         32.18317        29.51362        -2.22733
C         33.62401        31.81632        -2.61985
C         32.24876        31.01463        -2.72463
C         33.46537        33.42517        -2.60812
C         32.16390        34.12319        -2.89484
C         33.12044        36.38499        -2.28273
C         31.94908        35.59129        -2.66499
C         33.08853        37.79213        -2.33247
C         31.86690        38.48661        -2.69587
C         32.97312        40.62515        -2.13657
C         31.79065        39.85629        -2.57128
C         32.96745        42.12428        -2.17364
C         31.69723        42.81149        -2.45171
C         32.92224        44.96188        -2.37761
C         31.67755        44.20998        -2.33745
C         32.86108        46.35685        -2.28326
C         31.65150        47.03101        -1.92001
C         31.64168        48.41357        -1.70996
C         33.47992        22.44693         3.47266
C         34.59589        24.54965         2.94419
C         33.61758        23.62628         2.64277
C         34.69814        25.89237         2.33181
C         33.80338        26.24809         1.14405
C         35.14299        28.34454         0.83245
C         34.18861        27.44286         0.34414
C         35.31272        29.58302         0.13320
C         34.32056        30.03972        -0.81743
C         35.82784        31.77710        -1.39957
C         34.53777        31.26361        -1.51334
C         35.76526        33.82864        -1.72754
C         34.49368        34.30738        -1.96195
C         35.45315        36.52167        -1.46925
C         34.31808        35.73585        -1.83511
C         35.48528        37.90978        -1.67653
C         34.28414        38.55709        -2.08155
C         35.46551        40.73415        -1.97001
C         34.27531        39.96307        -2.12397
C         35.43631        42.15364        -2.13784
C         34.23813        42.86629        -2.29793
C         34.16396        44.26518        -2.45524
C         35.91133        26.69099         2.49971
C         37.26020        28.69919         2.06707
C         36.08309        27.91225         1.85875
C         37.48451        29.87020         1.34819
C         36.49063        30.34308         0.40448
C         37.88721        32.35753        -0.04247
C         36.74746        31.50348        -0.35007
C         37.93260        33.72475        -0.35505
C         36.70305        34.41803        -0.79815
C         37.84997        36.67450        -0.57016
C         36.59182        35.93102        -0.75427
C         37.86275        38.01756        -0.92613
C         36.68294        38.67630        -1.41115
C         36.67124        40.05654        -1.64650
C         38.70776        30.60331         1.47323
C         40.09320        32.60803         1.06534
C         38.91505        31.81140         0.81749
C         40.15384        33.91837         0.68959
C         39.02050        34.56271         0.07045
C         38.99079        35.95678        -0.09970
O         15.44039        41.29372        -1.58547
O         10.95062        35.66495        -1.58755
O         22.73752        29.11920        -4.84044
O         33.16125        33.88748        -3.96289
O         15.89180        29.06209        -3.60464
O         23.05803        26.63410        -4.57350
O         23.92820        31.40153        -4.70469
O         21.59353        43.32333        -2.34897
O         17.52475        45.98562         3.19306
O         29.89503        29.96269        -3.92515
O         26.22023        46.18224         0.51360
O         14.71516        41.07956         2.00260
O         20.19117        24.51261        -4.36097
O         22.37430        50.82347         4.52987
O         21.35757        35.08118        -0.76189
O         23.13361        48.89436        -1.01004
O         25.92321        53.18719         0.24313
O         15.41919        25.59285        -0.10971
O         16.15534        38.12472        -2.80954
O         28.80300        18.90785         0.54645
O         21.57345        18.90012        -3.26402
O         12.29079        30.65193        -2.70969
O         30.21033        48.44444         0.27798
O          9.07904        31.57980         1.62903
O         22.91618        21.21706        -3.43857
O         23.64170        57.60433         4.44125
O         23.60790        36.22300        -0.72993
O         28.46896        16.58523         1.77968
O         23.62538        13.85330         4.74718
O         25.07892        33.63930        -4.57706
O         33.36103        23.93456         0.16899
O         21.86923         6.46201         4.03741
O         18.64579        29.17637        -4.35250
O         36.22571        32.69229        -2.38690
O         25.96709        42.54475        -3.26051
O         14.04621        28.02107         0.56514
O         28.98017        26.42270        -2.73052
O         33.44441        26.68383         2.50002
O         26.37846        16.33612         4.91701
O         20.97209        33.88225        -4.07140
O         30.42529        33.52853        -4.50530
O         17.80371        25.89024        -0.89780
O         14.59301        33.26619        -3.48633
O         32.94358        26.77879        -1.56840
O         28.42235        22.91814         2.45287
O         24.45821        42.62042        -0.03814
O         10.94101        36.45051         2.11224
O         24.13336        39.72370        -0.32300
O         18.54362        26.64498        -4.29995
O         15.90524        18.83136        -3.86167
O         30.10988        37.99385        -4.42749
O         13.02915        37.83208         1.67179
O         15.07103        46.33699         0.60207
O         24.30467        17.18779         3.54641
O         32.48020        29.87616        -3.59711
O          8.92415        28.49599        -1.60408
O         19.15713        20.77327        -1.12350
O         32.45725        21.25371         1.70008
O         25.29264        50.15272        -1.25674
O         30.08584        40.43723        -4.27001
O         13.76583        38.98055        -1.88654
O         36.10123        35.10642         0.35603
O         18.95529        23.43781        -1.27666
O         32.80449        41.40920        -0.87973
O         27.59571        43.89208        -0.15124
O         15.27609        35.92694        -3.70037
H         15.70857        36.75423        -4.02100
O         12.30704        29.79370         0.88488
H         12.80935        29.13922         1.42746
O         23.88516        46.74376        -2.27228
H         23.28123        47.51037        -2.40923
O         24.98151         7.74402         7.43824
H         24.25198         8.27951         7.81143
O         21.04657        10.03881         0.95231
H         20.43765        10.15243         0.19150
O         20.36373        37.59527        -3.26445
H         20.12205        38.54377        -3.33092
O         17.75175        20.50725        -4.35427
H         17.26760        19.74203        -4.74683
O         21.80467        56.04706         3.44151
H         22.07467        56.99497         3.41767
O         21.97886        52.75526         6.16088
H         22.49681        51.91950         6.07117
O         16.99809        33.92256        -4.14942
H         16.16910        34.39591        -4.41659
O         30.34021        51.08638        -2.31958
H         29.39478        51.10653        -2.57421
O         10.03563        32.83327        -2.31804
H         10.61704        32.38360        -2.97155
O         29.24617        35.74858        -4.86067
H         29.91371        35.23773        -5.37146
O         19.67084        17.33596        -3.42618
H         20.38268        17.77707        -3.95077
O         17.29964        30.51786        -0.65747
H         17.43568        31.38127        -0.21238
O         28.47171        35.86424        -1.32544
H         27.69684        36.20543        -0.82927
O         25.38889        22.11298        -2.78205
H         24.73997        21.63589        -3.35926
O         16.07607        15.24274        -3.59682
H         16.12591        16.10057        -4.07049
O         34.31632        31.55364        -3.83945
H         33.87513        32.07143        -4.54949
O         27.62817        41.07730        -4.38470
H         28.46713        41.11289        -4.90053
O         18.44395        18.56764        -0.23255
H         18.78990        19.44209         0.06686
O         28.21637        41.17170        -0.76043
H         28.14165        41.89135        -0.08959
O         19.60688        37.37537         0.33879
H         20.55406        37.46523         0.57797
O         23.79531        45.36225         1.13234
H         24.16665        44.45484         1.00849
O         14.20025        20.84039        -3.96232
H         14.35537        20.00661        -4.46122
H          5.29060        30.36403         1.10549
H          5.24920        32.77858         1.41750
H          8.01453        26.08807         0.43064
H          6.49517        28.26085         0.51671
H          6.43695        35.02895         1.40967
H          7.75090        37.10877         1.72387
H         10.41906        22.11892        -0.73331
H          9.27025        24.08912        -0.19735
H          9.10610        39.25072         2.05484
H         10.26183        41.37615         2.16822
H         12.80277        17.94211        -1.29211
H         11.59472        19.98435        -1.13471
H         11.49755        43.52731         2.41945
H         12.73150        45.56285         2.87735
H         15.23839        13.59815        -1.51372
H         13.99988        15.76984        -1.49320
H         14.00173        47.77390         3.29376
H         15.37086        49.76594         3.91649
H         17.06579        10.37536         1.64700
H         16.18140        11.94662        -0.01066
H         16.73033        51.68704         4.58510
H         18.04822        53.64286         5.20917
H         18.74672         7.30349         4.92355
H         17.97046         8.78669         3.29100
H         19.41793        55.43038         6.29040
H         20.99942        56.92503         7.49198
H         21.90491         4.21735         7.20668
H         19.84221         5.22502         6.43132
H         24.83228        59.35083         9.00310
H         22.56582        58.38184         8.72266
H         24.05831         5.20411         6.99409
H         25.67752         7.07494         5.62821
H         27.47464        57.59381         5.40533
H         26.67311        58.81720         7.43994
H         26.86744         9.27417         5.88049
H         28.13040        11.39338         5.41140
H         29.29758        54.55793         2.03168
H         28.33177        56.18109         3.57911
H         29.37704        13.46842         5.01045
H         30.55780        15.63099         4.89119
H         31.40446        51.00049        -0.55150
H         30.33527        52.83193         0.51328
H         31.66453        17.84332         4.70819
H         32.60489        19.98421         4.80144
H         33.78860        46.94449        -2.35117
H         32.50762        49.01820        -2.01757
H         33.93646        22.47922         4.47332
H         35.32489        24.31069         3.73405
H         36.38936        42.70326        -2.12056
H         35.09494        44.84947        -2.50882
H         36.71152        26.30183         3.14694
H         38.01676        28.34541         2.78303
H         38.78655        38.60444        -0.81439
H         37.58985        40.64108        -1.49058
H         39.48189        30.22065         2.15545
H         40.92531        32.15161         1.62119
H         41.03795        34.52552         0.93296
H         39.89398        36.53248         0.15451
