         300
 CSIRO Nanostructure Databank - Neutral Graphene Oxide Data Set
C         30.30741        31.45616         0.50528
C         30.24768        32.68957         0.56629
C         30.21259        36.04198         0.58261
C         30.22113        37.25462         0.85003
C         30.37648        40.51788         1.00652
C         30.42198        41.72951         1.26206
C         32.78278        28.85010        -0.29408
C         31.59665        29.31946        -0.21124
C         32.75190        31.43561         0.63776
C         31.27099        30.37488         0.77670
C         32.68461        32.92959         0.66086
C         31.36126        33.63789         0.38978
C         32.59948        35.89629         0.72518
C         31.33008        35.12127         0.34728
C         32.62769        37.37140         0.36637
C         31.31449        38.13449         0.36768
C         32.72177        40.31565         0.39905
C         31.35850        39.62568         0.37969
C         32.77468        41.80563         0.73033
C         31.66920        42.45581         1.67724
C         32.98023        44.38459         1.31026
C         31.82300        43.95791         1.56988
C         35.50842        27.55507        -1.40497
C         35.38032        28.67692        -0.38405
C         34.05980        29.38179        -0.27227
C         35.26339        31.54813         0.37978
C         33.96927        30.91073        -0.15141
C         35.22782        33.01233         0.85592
C         33.96320        33.74861         0.36350
C         35.20572        35.89835         1.33037
C         33.88147        35.16291         0.97597
C         35.14061        37.43405         1.03341
C         34.01692        38.02638         0.15665
C         35.20750        40.22127         0.25812
C         34.01561        39.56361         0.32093
C         35.36822        41.70012         0.56892
C         34.08199        42.50483         0.55830
C         35.06636        44.67156        -0.22151
C         34.24513        43.98632         0.85803
C         35.51978        46.06832         0.00010
C         37.91040        27.70043        -1.92689
C         36.57297        27.10714        -1.84728
C         37.83486        29.07889        -1.29244
C         36.46005        29.71045        -0.97371
C         37.79485        31.77432        -0.08390
C         36.55254        30.92682        -0.04604
C         37.72650        33.14868         0.49421
C         36.52532        33.78248         0.60109
C         37.74449        35.96763         1.11309
C         36.45630        35.30603         0.59829
C         37.72099        37.45081         1.32904
C         36.43356        38.19426         1.02919
C         37.79573        40.25678         0.24430
C         36.50261        39.41053         0.09084
C         37.80982        41.72929        -0.07945
C         36.46762        42.39268        -0.23932
C         37.76103        44.58535        -0.79684
C         36.42828        43.86237        -0.52585
C         37.74345        46.11132        -0.98405
C         36.45321        46.65840        -0.54613
C         40.19887        24.71763        -1.75528
C         39.24783        25.45290        -2.04212
C         40.19119        27.23758        -0.72001
C         39.24772        26.97172        -1.98203
C         40.23361        28.73614        -0.28123
C         39.02640        29.59279        -0.53028
C         40.34836        31.62793         0.26540
C         39.09590        31.08387        -0.35370
C         40.28590        32.98875         0.87000
C         38.98549        33.78958         1.07732
C         40.23700        35.99312         0.85656
C         39.05876        35.29403         0.87333
C         40.26837        37.46394         0.90973
C         39.04641        38.21594         1.47040
C         40.24052        40.46788         0.93183
C         38.96047        39.69556         1.02403
C         40.25886        41.81907         0.23528
C         38.97554        42.64178         0.35384
C         40.28796        44.65611        -0.47780
C         39.05454        43.95427        -0.42805
C         40.30668        46.12781        -0.78838
C         39.00759        46.89111        -0.94345
C         40.12988        48.27105        -2.68564
C         39.21563        47.97812        -1.90938
C         42.79566        24.46001        -0.97022
C         41.57223        25.13183        -1.44015
C         42.77288        27.15743        -0.18274
C         41.57265        26.59342        -0.98595
C         42.78919        28.68049        -0.36617
C         41.57004        29.39898         0.19894
C         42.83899        31.56577         0.24041
C         41.65550        30.92264         0.02810
C         42.86967        33.00675         0.65308
C         41.58092        33.74635         1.14811
C         42.86206        35.93781         0.91151
C         41.50826        35.19700         0.49876
C         42.75737        37.46369         0.84736
C         41.44374        38.16562         0.82966
C         42.78609        40.39677         0.70919
C         41.51216        39.66201         1.00159
C         42.80010        41.89362         0.50259
C         41.54775        42.56532         0.03376
C         42.83070        44.74323        -0.26619
C         41.52664        44.03832        -0.14302
C         42.83441        46.01558        -1.10671
C         41.55183        46.83463        -1.37527
C         42.71678        47.93088        -3.16790
C         41.34621        47.39166        -2.87239
C         43.85005        25.01147        -0.62445
C         45.34979        27.25985        -0.79005
C         44.05613        26.47393        -0.69867
C         45.36459        28.73362        -0.53806
C         44.06843        29.45042        -0.51508
C         45.20018        31.68324        -0.78329
C         44.20699        30.85123         0.11928
C         45.30083        33.15904        -0.38631
C         44.08277        33.80850         0.24093
C         45.31581        36.03563         0.09108
C         43.96270        35.30821        -0.04237
C         45.28614        37.50166         0.31250
C         44.00811        38.22387         0.58123
C         45.31375        40.38537         0.31934
C         43.97745        39.66497         0.06762
C         45.36704        41.75106         0.24071
C         44.12305        42.56236         0.33937
C         45.31839        44.38927        -0.94975
C         44.20318        44.05013         0.03331
C         45.33132        45.81282        -1.44887
C         44.05955        46.16908        -2.11812
C         43.79924        47.48279        -2.78398
C         47.61602        27.38265        -0.43699
C         46.65828        26.59735        -0.67588
C         47.82387        28.75799        -0.53888
C         46.56942        29.45026        -0.49778
C         47.87390        31.64793        -0.31429
C         46.61984        30.93811        -0.91417
C         47.87914        33.10817         0.03063
C         46.59798        33.88665        -0.10819
C         47.66158        35.91852         0.93035
C         46.56249        35.28171         0.42584
C         47.63919        37.36731         1.30883
C         46.44053        38.19380         0.96293
C         47.76678        40.23679         0.52213
C         46.53680        39.63610         0.61034
C         47.83605        41.51461        -0.29758
C         46.69949        42.48701         0.13836
C         47.94711        44.30851        -1.37099
C         46.60211        43.62824        -0.89240
C         47.76442        45.81608        -1.07257
C         46.62465        46.28540        -1.41834
C         50.34924        28.77014        -0.13108
C         49.12302        29.49257        -0.65681
C         50.27059        31.48373         0.62297
C         48.94682        30.74254         0.32247
C         50.27340        32.94020         0.98676
C         48.94414        33.67985         0.94918
C         50.20241        35.85520         1.65052
C         48.88103        35.14108         1.30654
C         50.17876        37.37653         1.59512
C         48.93392        38.09763         1.52103
C         50.30327        40.24238         0.84983
C         48.96354        39.61195         1.10062
C         50.25019        41.78697         0.76078
C         49.18468        42.24505        -0.25278
C         50.35061        44.37215        -0.15087
C         49.18667        43.67767        -0.73732
C         51.40971        29.48628        -0.11948
C         52.54219        31.83362        -0.04766
C         51.57665        30.83807         0.13699
C         52.50711        33.09742        -0.03693
C         51.61740        33.78508         1.01812
C         52.47256        36.18087         0.92585
C         51.34158        35.24684         0.68213
C         52.55883        37.27174         1.47816
C         51.45315        38.14936         2.03101
C         52.51453        40.57255         1.73595
C         51.51197        39.53721         1.41586
C         52.56683        41.78687         1.51102
C         51.70056        42.45521         0.46702
C         51.35051        43.92429         0.42111
O         41.93142        26.21318        -2.33523
O         48.81652        39.20537         2.48513
O         36.02589        30.71073         1.29591
O         45.51478        36.99265        -1.02117
O         44.82347        30.58377         1.33148
O         36.14067        42.86063        -1.56435
O         43.60102        38.02946         1.95047
O         41.45879        35.06075        -0.87009
O         40.18554        31.78247         1.71926
O         43.43507        42.49548         1.66690
O         38.19055        40.76426        -1.08492
O         49.68921        42.57986        -1.57178
O         31.84851        37.58751        -0.86215
O         37.60932        36.52554         2.44802
O         39.70445        46.94148         0.30149
O         31.38692        34.36113        -0.88227
O         46.64448        37.73247         2.33030
O         39.20700        28.92841         0.75592
O         45.63835        43.39314        -1.96700
O         43.95778        33.31073         1.59329
O         35.50277        38.30357         2.14640
O         31.91343        40.15153        -0.83175
O         43.19702        29.17223        -1.66409
O         45.96384        33.89839        -1.44128
O         48.44543        32.62968        -1.22166
O         43.00317        46.09651         0.31215
O         37.68089        45.25282        -2.12332
O         32.94966        35.45053         2.07116
O         43.75242        39.62722        -1.30073
O         44.52985        26.90493        -1.95320
O         38.44895        31.81853        -1.41856
O         32.84642        32.12785         1.88107
O         39.41466        40.54213         2.13112
O         33.11660        42.43518        -0.54064
O         42.42200        40.09253         2.06814
O         50.31869        31.90866         2.03078
O         48.51363        34.09007         2.27862
O         37.99453        28.91081        -2.73320
O         40.88139        41.82559        -1.06502
O         51.23007        39.53964        -0.01448
O         34.35146        37.68186        -1.19117
H         33.61447        37.98126        -1.76961
O         48.42806        30.21913         1.54203
H         48.81170        30.73292         2.29083
O         50.84171        35.33801        -0.64085
H         51.50057        34.94149        -1.25255
O         49.79360        42.24532         2.02755
H         50.46135        42.03117         2.71338
O         36.56186        38.85585        -1.22701
H         36.91832        39.54461        -1.83410
O         31.22299        29.89244         2.06107
H         31.01642        30.62010         2.68279
O         35.38472        35.68875         2.72129
H         34.51293        35.76720         3.16510
O         39.33908        38.26774         2.88009
H         38.93909        37.46301         3.28892
O         52.15094        42.06835        -0.78527
H         53.05438        42.40857        -0.94165
O         49.38638        29.91243        -1.97552
H         48.55038        30.21417        -2.41310
O         38.73883        33.69864         2.51587
H         39.61583        33.70829         2.96765
O         36.36811        35.66535        -0.79404
H         35.62295        35.16767        -1.21060
O         47.57908        41.12058        -1.65117
H         48.19166        41.61905        -2.24267
O         34.27828        44.66733        -1.39487
H         34.42118        43.81733        -1.87193
O         43.55715        35.39777        -1.39695
H         43.75233        36.30192        -1.73813
O         42.65430        26.81450         1.19172
H         42.15551        27.51908         1.67659
O         46.89441        30.84806        -2.32330
H         46.02032        30.91012        -2.79079
O         33.69962        31.41868        -1.47343
H         34.38058        31.05198        -2.09244
O         35.15839        33.01064         2.28971
H         35.83767        32.38472         2.62487
O         39.67881        26.49746         0.38770
H         39.08692        27.08242         0.91651
O         35.82400        28.18502         0.86051
H         35.05683        27.89572         1.39570
O         41.60242        33.82979         2.57680
H         42.54238        33.78259         2.87260
O         43.23946        35.61659         2.23124
H         43.41102        36.45313         2.72981
O         38.76040        43.05215         1.71775
H         38.84805        42.25124         2.29536
O         34.11037        33.96452        -1.05281
H         33.21235        34.09790        -1.44762
O         39.94702        27.45134        -3.10517
H         39.37561        27.41154        -3.89915
O         44.71059        44.64065         1.26198
H         44.09189        44.38714         1.98540
O         35.91783        30.18400        -2.21325
H         36.45104        29.78502        -2.94675
O         41.61195        29.20324         1.62881
H         40.93906        29.79348         2.04165
O         41.05740        46.34867        -3.74588
H         40.99109        46.67855        -4.66487
O         47.04920        43.06754         1.39811
H         46.31694        43.67718         1.66874
O         41.74671        48.05217        -0.65220
H         41.85645        47.83239         0.29854
O         52.20321        33.67813         2.27670
H         52.12047        32.74783         2.58317
O         50.54486        35.54898         3.01125
H         49.95718        34.81511         3.31411
O         51.49071        38.23505         3.43394
H         51.38731        37.32488         3.79377
O         44.60040        31.70341        -2.09103
H         44.81213        32.56420        -2.51835
O         48.02103        44.14468        -2.76733
H         48.94772        44.26253        -3.06233
O         43.78997        45.14619        -3.08644
H         44.62339        44.87424        -3.52747
O         35.86557        41.75245         1.93574
H         35.36371        41.12081         2.49456
O         32.01676        42.07107         2.98749
H         31.38834        42.47275         3.62300
