         210
 CSIRO Nanostructure Databank - Neutral Graphene Oxide Data Set
C         30.57777        31.90189        -1.51995
C         30.55116        33.08762        -1.11064
C         30.45250        36.13627        -0.05934
C         30.47865        37.31240         0.35855
C         30.54053        40.32042         1.37678
C         30.50854        41.52949         1.68323
C         32.91168        28.92818        -1.69685
C         31.98409        29.74499        -1.92491
C         32.93495        31.85123        -1.23726
C         31.75749        31.11359        -1.60607
C         32.84526        33.18339        -0.68167
C         31.60591        33.92071        -0.66324
C         32.78982        35.89838         0.19086
C         31.57797        35.24797        -0.17621
C         32.79223        37.26369         0.79044
C         31.57441        38.10844         0.78699
C         32.90157        40.17655         1.31288
C         31.63877        39.44038         1.18119
C         32.91718        41.60679         1.54423
C         31.67750        42.33865         1.77045
C         32.97996        44.27275         1.93491
C         31.85237        43.71798         1.99801
C         35.45464        27.32441        -0.46071
C         35.35836        28.67215        -0.91663
C         34.31215        29.16512        -1.69629
C         35.36681        31.69521        -0.61202
C         34.28100        31.31134        -1.37632
C         35.19071        32.94463         0.24074
C         34.02807        33.81924        -0.20776
C         35.29688        35.96125        -0.01637
C         34.01376        35.18491         0.11804
C         35.34977        37.36034         0.52830
C         34.12196        38.02629         0.97757
C         35.36950        40.19382         1.00459
C         34.12157        39.49352         1.10264
C         35.41097        41.61162         1.19411
C         34.17941        42.30102         1.49422
C         35.46137        44.43206         1.48739
C         34.24565        43.72495         1.66678
C         35.62550        45.83356         1.50618
C         37.78595        27.31144         0.04667
C         36.48546        26.74753        -0.06512
C         37.77206        28.73096        -0.19969
C         36.57271        29.43762        -0.59993
C         37.78377        31.52727        -0.12357
C         36.57179        30.87909        -0.49853
C         37.79740        32.96404         0.23025
C         36.50484        33.71362         0.38703
C         37.75440        35.83510         0.12431
C         36.55488        35.17692         0.20689
C         37.78639        37.30769         0.27417
C         36.52406        38.05918         0.45705
C         37.77826        40.21009         0.46898
C         36.57648        39.49570         0.67954
C         37.84671        41.60749         0.69008
C         36.65449        42.31126         1.06932
C         37.89654        44.48576         0.96945
C         36.69178        43.75342         1.19604
C         37.93397        45.90089         0.98014
C         36.67427        46.48005         1.27828
C         40.16268        24.56926         0.82505
C         39.13171        25.24090         0.59509
C         40.24923        27.29766         0.36633
C         38.97685        26.62407         0.33618
C         40.25296        28.71583         0.16489
C         39.02529        29.41399        -0.06315
C         40.26264        31.56783        -0.01802
C         39.02434        30.84518        -0.08093
C         40.25872        33.00511        -0.07464
C         39.04370        33.71999         0.01694
C         40.22791        35.84621        -0.24311
C         39.02618        35.13516        -0.00423
C         40.18665        37.29635        -0.67046
C         39.03505        38.05342        -0.02021
C         40.29885        40.15553         0.10150
C         38.92824        39.54959        -0.28061
C         40.26807        41.67096         0.09825
C         39.10601        42.31733         0.48601
C         40.35570        44.52785         0.26170
C         39.22099        43.75986         0.92631
C         40.33405        45.96402         0.25299
C         39.12405        46.62955         0.65329
C         40.23916        48.74081         0.22241
C         39.26578        48.01822         0.57281
C         42.74188        24.58820         1.06097
C         41.46105        25.14256         0.85410
C         42.71477        27.31481         0.59136
C         41.47462        26.58246         0.61183
C         42.72808        28.73925         0.36871
C         41.49718        29.43690         0.19384
C         42.73581        31.58388        -0.00155
C         41.49958        30.86539         0.04806
C         42.72276        33.02498        -0.11816
C         41.48476        33.73049        -0.13584
C         42.70420        35.89083        -0.26337
C         41.46584        35.15768        -0.25207
C         42.68660        37.35529        -0.34435
C         41.50203        38.02890        -0.50767
C         42.74234        40.24593        -0.49414
C         41.43973        39.52940        -0.72936
C         42.68036        41.66891        -0.46450
C         41.50037        42.37968        -0.15074
C         42.71246        44.56562        -0.46944
C         41.50811        43.83255        -0.12895
C         42.68941        45.99905        -0.49795
C         41.49036        46.71818        -0.16342
C         42.69081        48.75819        -0.61028
C         41.46101        48.17946        -0.19627
C         43.79462        25.27434         1.01928
C         45.19967        27.36068         0.71853
C         43.97000        26.65184         0.79149
C         45.22498        28.77652         0.46343
C         43.97051        29.45965         0.31747
C         45.21881        31.57609        -0.01975
C         43.96999        30.87415         0.09835
C         45.19160        33.02497        -0.31032
C         43.92584        33.76825        -0.17103
C         45.15850        35.95229         0.24182
C         43.91710        35.18977        -0.17644
C         45.15893        37.42227        -0.11365
C         43.95906        38.09084        -0.30855
C         45.21759        40.22642        -0.48269
C         43.95905        39.53378        -0.46434
C         45.22337        41.65060        -0.85273
C         43.89643        42.40823        -0.83584
C         45.15289        44.54761        -0.95615
C         43.91962        43.87532        -0.73501
C         45.10774        45.98169        -1.05688
C         43.90464        46.68238        -0.86163
C         43.70868        48.08611        -0.88737
C         47.59397        27.44500         0.70867
C         46.49592        26.83886         0.84605
C         47.73256        28.81360         0.43495
C         46.47184        29.48195         0.33615
C         47.69000        31.66421         0.19588
C         46.44567        30.91002         0.09589
C         47.70020        33.05439         0.13239
C         46.50439        33.80580        -0.25023
C         47.63685        35.98865         0.08261
C         46.47293        35.26905        -0.03982
C         47.61779        37.43478         0.08974
C         46.41587        38.13427        -0.06943
C         47.69024        40.30350        -0.29571
C         46.43432        39.56682        -0.27813
C         47.69167        41.73305        -0.51698
C         46.47381        42.42145        -0.74853
C         47.67363        44.52595        -1.03237
C         46.41894        43.82775        -0.95228
C         47.48962        45.92217        -1.24064
C         46.40370        46.53427        -1.26208
C         50.30875        28.96264         0.54541
C         48.99974        29.54059         0.08274
C         49.89949        31.71231         1.26603
C         48.89601        30.97992         0.59565
C         50.05885        33.11041         1.05218
C         48.95781        33.78350         0.32877
C         50.03476        36.03259         0.94106
C         48.94773        35.27987         0.19622
C         50.17541        37.42650         0.31990
C         48.90322        38.15662        -0.03414
C         50.16353        40.34148        -0.04468
C         48.91318        39.63660        -0.10305
C         50.18592        41.76439        -0.28887
C         48.94014        42.44119        -0.54650
C         50.19117        44.41594        -0.83291
C         48.89316        43.85129        -0.83969
C         51.44075        29.47411         0.70055
C         52.69964        31.71531         1.12123
C         51.87801        30.61644         1.41187
C         52.40683        32.92953         1.36138
C         51.31089        33.81169         1.17936
C         52.39849        36.12758         1.09154
C         51.35488        35.22314         1.02764
C         52.44904        37.39953         0.96895
C         51.40708        38.23806         0.57653
C         52.48605        40.49529         0.29101
C         51.38382        39.61969         0.27720
C         52.57115        41.72538         0.05184
C         51.44367        42.50980        -0.27487
C         51.29750        43.88525        -0.58464
O         34.57264        30.37209        -2.39535
O         37.22551        33.25746         1.58836
O         38.77419        37.68494         1.34654
O         50.74774        31.06367         2.20229
O         35.35015        36.17570        -1.54754
O         44.48288        41.91837        -2.09600
O         33.47374        37.31077         2.08705
O         49.39853        34.50598        -0.92592
O         49.77134        37.51819        -1.06955
O         45.91838        33.38985        -1.53931
O         49.55997        36.19601         2.29844
H         50.27881        36.58813         2.83783
O         38.60215        39.77595        -1.66191
H         39.27731        39.31774        -2.21777
O         39.87580        37.28969        -2.10689
H         40.60514        36.82635        -2.57071
O         39.63562        43.66070         2.34614
H         39.67618        44.57183         2.70832
O         45.08168        35.92519         1.72506
H         44.25786        36.39258         1.98435
O         40.59635        39.77110         1.46336
H         39.84023        40.02354         2.03468
O         34.78372        32.49868         1.56169
H         35.60243        32.48112         2.11478
O         34.23871        37.07913        -1.86292
H         34.34232        37.16702        -2.84173
O         41.16313        39.75415        -2.14623
H         42.00534        39.66512        -2.64065
O         49.04778        29.65358        -1.35362
H         48.96719        28.75605        -1.73863
