         334
 CSIRO Nanostructure Databank - Neutral Graphene Oxide Data Set
C         30.58744        57.13990        -0.74307
C         30.64497        58.53456        -1.03683
C         29.63619        59.22588        -1.68163
C         30.81404        61.37298        -1.52984
C         29.80354        60.61647        -2.03229
C         32.78953        52.85887         0.22463
C         32.79534        54.27280         0.29734
C         31.65075        55.02022        -0.06734
C         33.01735        57.12245        -0.08503
C         31.68459        56.41745        -0.26392
C         32.80677        58.60794         0.26517
C         31.93476        59.29314        -0.79123
C         33.05292        61.44429        -0.29552
C         31.70506        60.78245        -0.45625
C         35.20244        48.56466         0.35398
C         35.18522        49.96128         0.39227
C         33.96770        50.70269         0.34594
C         35.19819        52.78056         0.95565
C         33.95046        52.09811         0.44840
C         35.21273        54.27990         0.79875
C         34.02862        54.96231         0.64941
C         35.21177        57.18211         1.13063
C         33.89078        56.43414         0.96647
C         35.26937        58.62917         0.78127
C         34.13662        59.31947         0.39758
C         35.42153        61.42680         0.34797
C         34.17288        60.75208         0.13908
C         37.70461        44.33600         0.56540
C         37.67454        45.69486         0.33140
C         36.44527        46.43550         0.33226
C         37.67123        48.56586         0.11950
C         36.42358        47.82925         0.29161
C         37.62162        49.99810         0.05334
C         36.44771        50.68581         0.32301
C         37.65354        52.83906         0.53603
C         36.47297        52.12124         0.50772
C         37.67430        54.25710         0.81063
C         36.48616        54.95283         0.96105
C         37.77788        57.14785         1.05032
C         36.50049        56.41419         1.19309
C         37.73779        58.58311         1.06150
C         36.54850        59.29590         0.88569
C         37.82655        61.42968         0.78647
C         36.57972        60.74185         0.70388
C         40.26155        40.00170         0.48319
C         40.20100        41.45838         0.36684
C         39.02088        42.13830         0.59884
C         40.13509        44.30797         0.00853
C         39.01988        43.63322         0.80708
C         40.14600        45.79769         0.22532
C         38.93502        46.45070         0.21633
C         40.13953        48.58622        -0.27720
C         38.88513        47.88357         0.08478
C         40.10528        50.06252        -0.51367
C         38.79959        50.82647        -0.41022
C         40.09674        52.91742        -0.15699
C         38.96544        52.09040         0.42839
C         40.12860        54.37706         0.13662
C         39.01717        54.93562         1.02419
C         40.23209        57.15649         0.82629
C         38.98055        56.45025         0.95311
C         40.26276        58.56052         0.97924
C         39.01636        59.30208         1.41178
C         40.25859        61.43005         0.99214
C         39.02933        60.76139         1.02520
C         42.94787        36.01540         1.75420
C         42.80685        37.46098         1.36780
C         41.51228        37.79369         0.58955
C         42.66794        39.96838        -0.02797
C         41.42159        39.29771         0.40419
C         42.65615        41.48417        -0.18706
C         41.42436        42.19518         0.14410
C         42.67607        44.29896         0.10486
C         41.46239        43.60363         0.17934
C         42.64933        45.79019        -0.10401
C         41.43787        46.51976         0.52501
C         42.61196        48.64170        -0.20055
C         41.45241        47.96345         0.02033
C         42.63840        50.04607        -0.79673
C         41.37743        50.83077        -0.48590
C         42.59133        52.99869        -0.73742
C         41.36852        52.18775        -0.40908
C         42.64325        54.38055        -0.09620
C         41.44125        55.07319         0.17935
C         42.69321        57.15820         0.50494
C         41.45847        56.44749         0.53473
C         42.70713        58.57412         0.69637
C         41.47884        59.27177         0.90318
C         42.71182        61.40180         0.97297
C         41.49388        60.71963         0.99876
C         45.47562        33.37965         2.28658
C         44.24553        33.98790         2.20459
C         45.26051        35.82657         0.80980
C         44.10239        35.30391         1.62821
C         45.25615        37.32871         0.65369
C         44.03919        38.02160         0.68083
C         45.16018        40.03027        -0.19531
C         43.98280        39.34201         0.19245
C         45.13768        41.47892        -0.39496
C         43.93757        42.19522        -0.20379
C         45.15252        44.32158        -0.19014
C         43.93171        43.61660        -0.06199
C         45.27893        45.75514         0.26180
C         43.94393        46.50176         0.28373
C         45.17921        48.67064        -0.24596
C         43.91847        47.98029         0.08372
C         45.15614        50.15766        -0.02445
C         43.88114        50.85838        -0.46102
C         45.13761        53.01268        -0.74546
C         43.86941        52.20781        -0.58369
C         45.16776        54.26789         0.12791
C         43.87739        55.04978         0.04912
C         45.15778        57.17056         0.21096
C         43.91706        56.45163         0.28247
C         45.15745        58.59172         0.37504
C         43.93567        59.28597         0.64522
C         45.16650        61.41079         0.76492
C         43.94759        60.71432         0.80517
C         46.66074        34.03278         1.84658
C         47.76988        35.98796         0.84935
C         46.60723        35.27671         1.22510
C         47.72302        37.29142         0.32405
C         46.43561        37.98424         0.21855
C         47.60472        39.98610        -0.78289
C         46.38831        39.33321        -0.18187
C         47.60605        41.49592        -0.67743
C         46.35549        42.19743        -0.57563
C         47.54061        44.37811        -0.77141
C         46.34737        43.63314        -0.51037
C         47.53032        45.79251        -0.80342
C         46.38321        46.51767        -0.44764
C         47.60480        48.68458        -0.73260
C         46.35069        47.96161        -0.48285
C         47.62137        50.11598        -0.65603
C         46.41037        50.84959        -0.48044
C         47.63428        52.95934        -0.64987
C         46.41414        52.23097        -0.56602
C         47.61468        54.39606        -0.50148
C         46.41205        55.07213        -0.18599
C         47.60345        57.20703        -0.29447
C         46.39407        56.47860        -0.07311
C         47.54608        58.67189        -0.31402
C         46.34978        59.33890         0.20374
C         47.62209        61.42973         0.53575
C         46.38297        60.74296         0.46817
C         48.91302        38.00955         0.06291
C         50.08598        40.09709        -0.45725
C         48.90634        39.35277        -0.34784
C         50.07096        41.49622        -0.70654
C         48.79941        42.18351        -0.79926
C         50.00649        44.37609        -0.51678
C         48.80671        43.65239        -1.15258
C         50.05165        45.82630        -0.93462
C         48.75694        46.51278        -1.31825
C         50.02046        48.68866        -1.17746
C         48.78408        47.99058        -1.01434
C         50.02251        50.10114        -1.14900
C         48.83284        50.82715        -0.88824
C         50.08075        53.00087        -0.94414
C         48.85419        52.26669        -0.83252
C         50.07348        54.41560        -0.79140
C         48.84260        55.11656        -0.58751
C         50.09090        57.26975        -0.47829
C         48.83338        56.54130        -0.48394
C         50.11435        58.65478        -0.31424
C         48.88232        59.45516        -0.33326
C         50.06209        61.38923         0.69015
C         48.86708        60.80338         0.28732
C         51.27631        42.22791        -0.75191
C         52.49413        44.35945        -0.79894
C         51.30617        43.63947        -0.75077
C         52.50968        45.78802        -0.84353
C         51.24182        46.50724        -0.98740
C         52.49616        48.61581        -1.21029
C         51.27431        47.95111        -1.20561
C         52.56337        50.06170        -1.47730
C         51.24780        50.84850        -1.44992
C         52.54150        52.95443        -1.24500
C         51.31562        52.29824        -1.18790
C         52.54630        54.43328        -1.19126
C         51.30449        55.14859        -0.82526
C         52.60150        57.21580        -0.39206
C         51.33491        56.53242        -0.60816
C         52.62194        58.57649        -0.00705
C         51.38762        59.36883        -0.16072
C         52.58546        61.40296         0.99960
C         51.35717        60.81144         0.33751
C         53.70625        46.49097        -0.83154
C         54.93054        48.62575        -0.86348
C         53.73830        47.91397        -0.96523
C         54.97751        50.05855        -0.92111
C         53.79554        50.80323        -1.18867
C         55.03311        52.90180        -0.98049
C         53.80334        52.22626        -1.19781
C         55.18691        54.40187        -1.17558
C         53.86597        55.16833        -1.08038
C         55.02031        57.08216         0.04252
C         53.83537        56.50522        -0.45386
C         55.02442        58.44060         0.46992
C         53.82365        59.20235         0.41419
C         55.04681        61.20847         1.09114
C         53.85311        60.59566         0.80679
C         56.18303        50.74935        -0.70546
C         57.45638        52.83276        -0.45022
C         56.21982        52.15650        -0.73763
C         57.49818        54.19272        -0.17512
C         56.28171        54.99102        -0.31315
C         57.38347        56.82585         0.95846
C         56.23197        56.27769         0.14564
C         57.45508        58.33300         0.95462
C         56.26454        59.07718         0.84904
C         57.49999        61.12587         1.39104
C         56.28838        60.48813         1.09062
C         58.70591        54.83572         0.21756
C         59.89918        56.84577         0.94403
C         58.70986        56.16618         0.64897
C         59.91215        58.23102         1.27435
C         58.67779        58.97940         1.23371
C         59.95086        61.02931         1.73910
C         58.70702        60.39661         1.44637
C         61.11302        58.90555         1.55971
C         61.12177        60.28977         1.79866
O         53.17099        55.09883        -2.36995
O         40.07033        49.14061        -1.65828
O         42.53252        40.56815        -1.35176
O         43.89280        47.36980         1.46760
O         39.71120        53.89215        -1.18624
O         51.88324        50.46296        -2.71318
O         48.07714        59.30125        -1.53201
O         51.53759        60.52430        -1.08588
O         42.46114        53.40423        -2.23149
O         35.79758        56.85172         2.44154
O         45.28551        53.81571         1.51029
H         45.25487        54.60449         2.09094
O         45.73755        45.64862         1.65062
H         45.38777        46.44377         2.11812
O         41.50747        46.49729         1.96460
H         42.34698        46.94786         2.22890
O         30.98603        60.97328         0.78740
H         31.31518        60.29345         1.42575
O         55.67147        54.55823        -2.54327
H         54.86833        54.59400        -3.11530
O         45.03439        35.31141        -0.54828
H         45.80230        35.58254        -1.09511
O         41.51063        37.15614        -0.68756
H         42.23814        37.52943        -1.22731
O         32.08663        58.69942         1.51757
H         32.41385        57.97649         2.11558
O         42.66682        38.20656         2.61883
H         43.44078        37.99822         3.18305
O         33.77982        57.00097        -1.30348
H         33.42725        57.66219        -1.94937
O         39.80085        44.13109        -1.40099
H         40.44612        44.65634        -1.92355
O         48.95189        43.68567        -2.59984
H         48.81828        44.62448        -2.89554
O         39.43111        54.56251         2.38875
H         38.75373        54.90778         3.00946
O         42.69873        49.86657        -2.24146
H         42.37646        50.70273        -2.66004
O         52.76493        62.74318         0.52187
H         52.75927        62.70659        -0.45781
O         39.36899        51.70747         1.76344
H         39.42632        52.53539         2.29936
O         39.33323        43.81844         2.22416
H         38.57039        43.50048         2.75027
O         45.13914        50.30387         1.44573
H         45.93653        49.85524         1.79848
O         38.48238        51.27017        -1.75492
H         38.64356        50.50020        -2.34626
O         35.17149        52.57997         2.42358
H         34.31356        52.93099         2.74527
O         48.67994        46.41635        -2.79762
H         49.41281        46.95703        -3.16515
O         42.48355        45.96219        -1.54613
H         43.19387        45.46401        -2.00348
O         33.23051        56.46603         2.26758
H         33.95644        56.39179         2.93269
O         47.49896        39.71515        -2.22879
H         48.20733        40.22828        -2.67404
O         57.08144        56.45641         2.35506
H         57.81880        56.79257         2.90786
O         49.76407        44.35199         0.92286
H         50.52857        44.77924         1.36276
O         41.62458        52.45942        -2.92519
H         40.71049        52.80788        -2.74484
O         45.18195        53.45081        -2.13208
H         44.26251        53.46241        -2.49493
O         39.05910        59.30418         2.88862
H         38.92150        58.37920         3.18446
O         32.67156        59.28129        -2.04957
H         32.09835        59.70321        -2.72597
H         29.64096        56.60743        -0.93119
H         28.71198        58.70947        -1.97978
H         30.89778        62.44019        -1.78457
H         29.07230        61.06398        -2.72255
H         31.86985        52.34705        -0.09871
H         30.72094        54.47519        -0.29548
H         33.12186        62.53668        -0.42278
H         34.25214        48.01076         0.39301
H         33.02573        50.16213         0.16359
H         35.46889        62.51379         0.18232
H         36.76710        43.80053         0.78636
H         35.49740        45.88362         0.42453
H         37.84685        62.50880         0.56891
H         39.32743        39.47891         0.74215
H         38.10556        41.57141         0.83497
H         40.27725        62.52361         0.86678
H         42.10430        35.57459         2.31023
H         40.62631        37.41620         1.15621
H         42.71923        62.49957         1.04553
H         45.56338        32.39176         2.76088
H         43.35928        33.50668         2.64408
H         45.17694        62.49718         0.93541
H         47.63678        33.56449         2.04279
H         48.75366        35.52801         1.03277
H         47.62198        62.47477         0.87888
H         49.87880        37.51954         0.26357
H         51.05122        39.60716        -0.25488
H         50.04594        62.31427         1.28511
H         52.22982        41.67705        -0.74438
H         53.45342        43.82239        -0.85692
H         52.38779        61.48020         2.10464
H         54.65578        45.94745        -0.71725
H         55.86752        48.08059        -0.67715
H         55.05134        62.27571         1.35769
H         57.10484        50.18625        -0.49951
H         58.36815        52.22782        -0.33452
H         57.51047        62.20822         1.58728
H         59.65467        54.28224         0.14339
H         60.85903        56.31473         0.84895
H         59.97013        62.11429         1.91556
H         62.05544        58.33987         1.58651
H         62.07364        60.79146         2.02316
