         424
 CSIRO Nanostructure Databank - Neutral Graphene Oxide Data Set
C          1.55222         3.40881         0.29710
C          0.32521         4.06409         0.25387
C          1.38207         6.28328         0.33836
C          0.24225         5.46558         0.21855
C          1.32534         7.69387         0.28589
C          0.10993         8.40953         0.14513
C          1.24000        10.59644         0.10336
C          0.05660         9.79151         0.13170
C          1.17951        12.03728         0.03359
C         -0.04615        12.75703         0.10190
C          1.11354        14.91346         0.13648
C         -0.07991        14.13549         0.14422
C          1.09918        16.35403         0.25177
C         -0.11169        17.10402         0.35227
C          1.09907        19.22480         0.59068
C         -0.11418        18.47287         0.49782
C          1.11852        20.65272         0.73437
C         -0.09736        21.46818         0.78345
C          1.19433        23.42801         1.64783
C         -0.08972        22.75352         1.20006
C          1.18917        24.95662         1.61693
C          0.03145        25.66011         1.98937
C          1.33608        27.68869         2.08774
C          0.12791        27.01425         2.30109
C          1.43789        29.97113         1.74465
C          0.31972        30.80091         1.85074
C          1.33183        32.31123         0.27368
C          0.25555        31.96603         1.09282
C          1.35392        33.72312        -0.28601
C          0.03069        34.26054        -0.80732
C          1.27309        36.06150        -1.89963
C          0.02719        35.38214        -1.56337
C          1.29863        37.41757        -2.35525
C          3.99162         3.51885         0.17394
C          2.76322         4.14452         0.33945
C          3.89964         6.39185         0.19995
C          2.70143         5.61766         0.69891
C          3.83018         7.78415         0.09993
C          2.58062         8.49843         0.55955
C          3.68374        10.67607        -0.12044
C          2.49606         9.94359         0.10407
C          3.64293        12.10420        -0.17578
C          2.38980        12.78539        -0.03957
C          3.57915        14.94878         0.01661
C          2.35111        14.21450         0.02974
C          3.54929        16.35308         0.16301
C          2.33086        17.07139         0.29477
C          3.54844        19.20960         0.72420
C          2.33219        18.50672         0.50744
C          3.54476        20.58969         0.98601
C          2.34331        21.32412         0.88618
C          3.63019        23.49563         1.13851
C          2.34118        22.84276         0.80040
C          3.69538        24.93292         1.50044
C          2.38918        25.67200         1.40990
C          3.66810        27.85419         1.05930
C          2.45729        27.09183         1.48110
C          3.67485        29.26691         0.74145
C          2.51944        30.19596         0.85849
C          3.64801        31.96138        -0.51031
C          2.46856        31.45835         0.17432
C          3.69209        33.22993        -1.06956
C          2.38695        33.90178        -1.39144
C          3.72246        36.03055        -1.84685
C          2.48025        35.37224        -1.72545
C          3.74142        37.44759        -2.17486
C          2.48900        38.08003        -2.51336
C          6.43240         3.62015        -0.19762
C          5.20177         4.26111         0.01702
C          6.27764         6.44172        -0.39867
C          5.11587         5.70163        -0.04878
C          6.16841         7.84418        -0.58219
C          4.96525         8.53498        -0.32022
C          6.09861        10.73450        -0.58187
C          4.93343         9.98706        -0.35453
C          6.11509        12.15773        -0.44595
C          4.85502        12.85355        -0.28723
C          6.07456        14.98620        -0.08101
C          4.82694        14.26270        -0.17905
C          6.08103        16.31126         0.25607
C          4.82773        17.07429         0.16093
C          6.11287        19.13332         0.94933
C          4.84108        18.53194         0.48988
C          6.08973        20.51257         1.41369
C          4.79446        21.26521         1.42282
C          6.14125        23.47927         1.19688
C          4.85712        22.76163         1.40154
C          6.11433        24.86740         0.91505
C          4.80278        25.59057         0.67847
C          6.08486        27.71978         0.49816
C          4.84852        27.09842         0.82064
C          6.07805        29.08838         0.12779
C          4.86630        29.80161         0.15006
C          6.14120        31.77225        -1.00643
C          4.83348        31.10476        -0.56375
C          6.13657        33.21317        -1.24799
C          4.93822        33.88899        -1.38661
C          6.16800        36.03849        -1.59170
C          4.94469        35.32906        -1.64383
C          6.13175        37.54480        -1.45874
C          4.92518        38.15647        -2.10961
C          8.84705         3.67629        -0.76968
C          7.61966         4.34025        -0.48569
C          8.70352         6.52790        -0.87317
C          7.53805         5.77504        -0.58601
C          8.63901         7.91107        -1.05946
C          7.33953         8.56803        -1.06889
C          8.63089        10.79405        -0.95106
C          7.33514        10.09612        -1.06043
C          8.59667        12.16896        -0.61669
C          7.34634        12.84079        -0.47416
C          8.60470        14.94764         0.08930
C          7.36406        14.33890        -0.51924
C          8.59812        16.29061         0.48510
C          7.30190        16.94561         0.86719
C          8.56990        19.16196         0.88789
C          7.31023        18.45292         0.87329
C          8.58852        20.55243         0.91972
C          7.41145        21.29649         1.35150
C          8.58294        23.45202         0.95952
C          7.35607        22.76520         1.17083
C          8.57462        24.86605         0.85520
C          7.33221        25.57333         0.76988
C          8.57840        27.65829         0.36106
C          7.32752        26.97441         0.49698
C          8.60019        29.02439         0.02866
C          7.34364        29.62307        -0.53771
C          8.58135        31.83636        -0.53609
C          7.40637        31.12251        -0.63272
C          8.63524        33.25447        -0.86635
C          7.45086        33.86760        -1.58074
C          8.61639        36.07398        -1.40246
C          7.39661        35.36724        -1.45348
C          8.62708        37.50230        -1.68504
C          7.42942        38.19114        -1.82525
C         11.21028         3.74352        -1.52519
C         10.02578         4.36880        -1.12325
C         10.91517         6.54403        -1.97030
C         10.05869         5.86794        -0.92873
C         10.76573         7.95495        -2.12890
C          9.78796         8.69334        -1.44906
C         11.10736        10.84903        -1.07835
C          9.85070        10.13202        -1.24494
C         11.08048        12.15816        -0.51935
C          9.83868        12.85949        -0.37568
C         10.98667        14.78977         0.78764
C          9.80530        14.20681         0.06871
C         11.06448        16.29707         0.71310
C          9.82482        17.01344         0.67246
C         11.05958        19.14093         0.78219
C          9.81560        18.42643         0.74648
C         11.08011        20.55592         0.76543
C          9.80725        21.29737         0.46388
C         11.03828        23.42845         0.96091
C          9.82795        22.74360         0.88397
C         11.04251        24.86385         0.96434
C          9.81622        25.56452         0.80527
C         11.05237        27.66684         0.58947
C          9.82052        26.97096         0.59802
C         11.04945        29.08057         0.31488
C          9.81875        29.75012         0.04165
C         11.03011        31.87751        -0.09233
C          9.83079        31.16147        -0.20065
C         11.02300        33.39135        -0.08667
C          9.79346        33.98210        -0.74112
C         11.06983        36.05391        -1.25251
C          9.83740        35.38047        -1.14305
C         11.09387        37.44490        -1.65082
C          9.88705        38.14221        -1.84984
C         13.59271         3.96120        -2.24268
C         12.32883         4.49227        -2.06965
C         13.89254         6.99455        -2.62912
C         11.99041         5.85091        -2.48373
C         13.79127         8.29767        -2.05439
C         12.61858         9.09729        -2.10466
C         13.59551        10.79741        -0.69124
C         12.40995        10.23092        -1.29888
C         13.56018        12.09128        -0.11405
C         12.30829        12.82451        -0.07458
C         13.49481        14.74528         1.09060
C         12.28073        14.09844         0.47151
C         13.53713        16.25227         0.91649
C         12.27743        16.97201         0.85842
C         13.50494        19.12766         0.97327
C         12.29150        18.41827         0.87493
C         13.51965        20.53928         0.95603
C         12.29288        21.26489         0.86497
C         13.50967        23.38780         1.13051
C         12.30788        22.70823         0.96418
C         13.51135        24.85626         1.50861
C         12.26473        25.59018         1.06161
C         13.51167        27.78281         1.17984
C         12.26225        26.97231         0.91070
C         13.54892        29.00216         0.23826
C         12.26684        29.80349         0.27419
C         13.49759        32.01028         0.41293
C         12.25369        31.19549         0.12975
C         13.52439        33.32319        -0.34496
C         12.31509        33.99244        -0.59403
C         13.53128        36.01027        -1.30764
C         12.31640        35.34969        -1.06719
C         13.55754        37.41076        -1.62789
C         12.33653        38.09882        -1.80756
C         16.07116         3.89652        -2.50905
C         14.82023         4.67225        -2.82758
C         16.06401         6.62036        -1.64333
C         14.92211         6.11582        -2.34734
C         16.06030         7.96029        -1.15907
C         14.89619         8.76731        -1.29134
C         16.01686        10.62676        -0.16492
C         14.82315        10.06509        -0.71170
C         15.97883        11.95737         0.32888
C         14.77262        12.68784         0.36929
C         15.98247        14.78379         0.87844
C         14.79363        14.07533         0.75046
C         16.00393        16.22108         0.94907
C         14.74139        16.92627         0.97656
C         16.02270        19.10215         0.84281
C         14.77673        18.39605         1.31287
C         15.99970        20.54793         0.80382
C         14.76626        21.26203         0.96789
C         15.99471        23.40381         1.02810
C         14.75672        22.67789         1.05190
C         15.99929        24.84452         1.05580
C         14.79394        25.57634         1.14800
C         16.01551        27.69168         0.95107
C         14.80220        26.98711         1.06100
C         16.03264        29.12795         0.66112
C         14.79358        29.82634         0.41263
C         15.98917        31.92664         0.10200
C         14.77923        31.21905         0.26551
C         15.99451        33.30476        -0.25101
C         14.76497        33.94120        -0.59682
C         16.03233        36.06633        -1.01402
C         14.82012        35.23800        -1.35078
C         16.00990        37.46781        -1.29408
C         14.79255        38.09829        -1.68550
C         18.41494         3.67950        -1.78291
C         17.20716         4.44566        -1.93517
C         18.38977         6.37327        -0.87029
C         17.22279         5.81945        -1.47398
C         18.38217         7.70192        -0.36443
C         17.22127         8.49345        -0.50994
C         18.46807        10.48480         0.26201
C         17.21238         9.85957        -0.09275
C         18.48880        11.87144         0.48439
C         17.23737        12.56381         0.76320
C         18.53459        14.80263         0.84086
C         17.26271        14.07191         1.00171
C         18.49644        16.22474         0.79829
C         17.22387        16.92584         0.86873
C         18.43876        19.05175         0.31764
C         17.19382        18.36813         0.71416
C         18.43324        20.59428         0.30210
C         17.19386        21.28642         0.67152
C         18.47003        23.41215         0.81624
C         17.21165        22.69879         0.84681
C         18.46665        24.82489         0.98461
C         17.25591        25.54053         1.01600
C         18.48514        27.69270         1.01004
C         17.26295        26.98670         1.01420
C         18.46208        29.19184         1.18978
C         17.22903        29.81678         0.61599
C         18.49813        31.98916         0.31661
C         17.28239        31.16695        -0.03296
C         18.46041        33.39534         0.10583
C         17.23026        34.03346        -0.28238
C         18.41557        36.21325        -0.41148
C         17.21757        35.43961        -0.57650
C         18.38892        37.61694        -0.69483
C         17.19050        38.22192        -1.13447
C         19.56791         4.25153        -1.28213
C         20.81325         6.23175        -0.40069
C         19.59329         5.59353        -0.82678
C         20.82527         7.48494         0.12469
C         19.54685         8.20825         0.46412
C         20.81460        10.40054         0.93728
C         19.65897         9.72030         0.44199
C         20.88699        11.76890         1.02360
C         19.79541        12.60404         0.40984
C         20.94669        14.81706         0.68702
C         19.74676        14.08719         0.74279
C         20.93860        16.20569         0.68554
C         19.73077        16.93854         0.68240
C         20.89498        19.13631         0.39286
C         19.73146        18.37456         0.48641
C         20.89361        20.54455         0.35231
C         19.71802        21.30062         0.42262
C         20.91003        23.49446         0.43997
C         19.69748        22.71895         0.60016
C         20.94757        24.82529         0.67091
C         19.77132        25.53038         1.28885
C         20.91530        27.75838         0.95786
C         19.73650        27.02326         1.04225
C         20.91070        29.16920         0.78325
C         19.74091        29.89480         0.81031
C         20.87364        32.12697         0.81537
C         19.70464        31.34156         0.64535
C         20.84217        33.49818         0.63324
C         19.65278        34.16615         0.26470
C         20.77330        36.40434         0.18026
C         19.62770        35.60110         0.02182
C         20.73967        37.78062        -0.08775
C         19.57299        38.38644        -0.52394
O          1.46997        28.94263         2.68418
O          4.66410        21.99703         2.68937
O         17.25624        13.14148         2.13243
O          4.92731        18.09897        -0.93058
O         18.31638        19.80638        -0.93196
O          6.87252        20.76763         2.61213
O          5.32858        30.98366        -1.95969
O          7.13175         9.34939        -2.30222
O         12.81027         6.49904        -3.41146
O         11.60513         8.66113        -2.98812
O         13.41240        32.36585         1.83193
H         12.61561        32.94672         1.92705
O         19.23965         7.84403         1.86811
H         19.13773         6.86906         1.89998
O          2.70012         8.58954         2.02450
H          1.85868         8.96295         2.36177
O          7.15732        16.60364         2.30857
H          7.88825        17.04823         2.79034
O          1.86313        33.20955        -2.56269
H          2.56153        33.20669        -3.24983
O          1.77023        34.57761         0.81872
H          1.11862        34.47366         1.54314
O          1.46307        23.04474         3.02391
H          0.69877        23.31820         3.57242
O         14.86101        18.42903         2.78943
H         14.17053        17.82428         3.13691
O         13.47041        24.88056         2.97902
H         13.40882        25.82405         3.24808
O         14.99593        34.85053        -2.78700
H         14.98390        35.68487        -3.30427
O         18.34884        29.38023         2.66314
H         19.05570        28.83654         3.07432
O          7.28032        29.12592        -1.92412
H          6.53545        29.61866        -2.35099
O         13.36954        14.55881         2.55265
H         12.40823        14.67026         2.77171
O         14.68451         4.67168        -4.28025
H         13.90162         5.22982        -4.49223
O         10.97090        33.77317         1.34717
H         10.12184        33.43892         1.70833
O         19.94563        25.40483         2.75293
H         19.93888        24.44630         2.96246
O          7.68046        33.58462        -3.01230
H          6.91016        33.93757        -3.50609
O         17.39880        30.89691        -1.49226
H         17.34291        31.76474        -1.94890
O          2.77675         5.64823         2.16363
H          1.99599         5.16191         2.50260
O         20.08871        12.62198        -1.05786
H         20.27087        11.69398        -1.32293
O         10.71253         6.10966         0.36437
H         10.22663         5.58978         1.03910
O          5.94148        37.80441         0.00344
H          5.11149        37.34790         0.26253
O          2.06211        23.18713        -0.60097
H          2.71151        23.87152        -0.88373
O          7.46043        14.67751        -1.95404
H          6.69726        14.26143        -2.40858
O         13.63674        28.42865        -1.10341
H         13.73047        29.16369        -1.74507
O          4.09859        25.00945         2.89905
H          3.63448        24.29111         3.38333
O         13.41268        28.24034         2.55413
H         14.15272        28.86306         2.72145
O          9.71337        21.34315        -1.01582
H         10.53663        21.76144        -1.34740
O         10.70341        14.50876         2.23849
H         10.50301        13.54987         2.30833
O          4.40082        25.33517        -0.71194
H          5.03749        25.79643        -1.29987
H          1.59311         2.31323         0.20663
H         -0.59929         3.47513         0.17290
H         -0.74611         5.92004         0.06278
H         -0.83596         7.85644         0.05604
H         -0.92773        10.27311         0.06192
H         -0.99837        12.21054         0.13854
H         -1.05698        14.63354         0.20745
H         -1.07758        16.58230         0.30679
H         -1.07913        18.99466         0.56152
H         -1.05515        21.00518         0.50276
H         -1.04000        23.30679         1.25260
H         -0.91763        25.13136         2.15578
H         -0.71751        27.54918         2.75243
H         -0.47350        30.54253         2.56337
H         -0.61019        32.63596         1.19058
H         -0.91861        33.78237        -0.52273
H         -0.92199        35.83347        -1.89147
H          0.34715        37.93349        -2.55102
H          4.02672         2.42405         0.05802
H          2.50199        39.13262        -2.83162
H          6.47416         2.52136        -0.16153
H          4.93145        39.23501        -2.32994
H          8.85067         2.57573        -0.79352
H          7.43841        39.26349        -2.07132
H         11.27863         2.64511        -1.50469
H          9.91812        39.20985        -2.11344
H         13.74651         2.92189        -1.90989
H         12.35339        39.16916        -2.06199
H         16.10075         2.84752        -2.84235
H         14.79678        39.17569        -1.90574
H         18.42249         2.63313        -2.12101
H         17.17502        39.30221        -1.34182
H         20.49275         3.65793        -1.22960
H         21.75824         5.68365        -0.53869
H         21.78241         7.93345         0.42852
H         21.65942         9.80302         1.31079
H         21.78868        12.25270         1.42449
H         21.90423        14.28413         0.60616
H         21.89916        16.73348         0.61937
H         21.87479        18.64112         0.43638
H         21.86882        21.05021         0.36987
H         21.81063        22.99059         0.06157
H         21.88744        25.37186         0.51200
H         21.88872        27.25118         0.98257
H         21.87109        29.66789         0.58830
H         21.81792        31.64635         1.10552
H         21.77193        34.06555         0.77295
H         21.71945        35.96248         0.51956
H         21.65209        38.37817         0.04774
H         19.54923        39.46444        -0.73824
