         275
 CSIRO Nanostructure Databank - Neutral Graphene Oxide Data Set
C         30.44539        31.79205         0.97196
C         30.52414        32.94728         0.47353
C         30.59553        35.84986        -0.99011
C         30.60991        36.93653        -1.57760
C         30.52484        39.93629        -1.55466
C         30.35934        41.17591        -1.35938
C         32.84352        29.38213         2.55116
C         31.72327        29.86308         2.21384
C         32.77243        31.94036         1.58431
C         31.49979        31.09523         1.59107
C         32.92284        33.09435         0.57331
C         31.60175        33.83038         0.21775
C         32.93395        35.75195        -0.64706
C         31.62604        35.04777        -0.40803
C         33.01632        37.08320        -1.36450
C         31.79356        37.75839        -2.06559
C         32.85454        40.04687        -1.59256
C         31.70610        39.21274        -1.70980
C         32.72499        41.45197        -1.41807
C         31.43055        42.07729        -1.28632
C         32.52581        44.11098        -0.88666
C         31.44825        43.51155        -1.09085
C         35.58102        27.73657         2.15833
C         35.30993        29.12281         2.05190
C         34.15860        29.84486         2.30384
C         35.39322        32.03998         1.75883
C         34.08744        31.32318         2.01656
C         35.36976        33.46716         1.33897
C         34.05269        34.04892         0.97328
C         35.32571        36.09894         0.10983
C         34.04944        35.39724         0.27953
C         35.34324        37.38502        -0.57175
C         34.20538        37.94004        -1.11560
C         35.35955        40.18521        -1.11558
C         34.22265        39.35992        -1.70361
C         35.16338        41.65136        -0.80703
C         33.99442        42.31087        -1.54120
C         35.02143        44.44558        -0.57944
C         33.89381        43.77280        -0.96194
C         35.20517        45.75154        -0.00885
C         37.77340        27.55408         1.17159
C         36.54182        27.05024         1.75189
C         37.75093        28.97381         1.15688
C         36.45098        29.75607         1.22209
C         37.86484        31.95213         1.10114
C         36.64352        31.23519         1.54024
C         37.86674        33.44439         1.39276
C         36.54421        34.20134         1.24645
C         37.54043        36.54505         0.87060
C         36.45755        35.58541         0.74945
C         37.73927        37.65979         0.12724
C         36.67305        38.07882        -0.84696
C         37.79901        40.34204        -0.71787
C         36.55003        39.58976        -0.81069
C         37.71055        41.74590        -1.29404
C         36.43340        42.47445        -0.92480
C         37.56661        44.55122        -0.17354
C         36.35862        43.82508        -0.73155
C         37.59777        46.07789         0.14208
C         36.15165        46.36656         0.50448
C         39.96871        24.66013         0.07454
C         39.05639        25.39861         0.54813
C         39.97487        27.47221        -0.07343
C         38.80732        26.78443         0.58781
C         40.14853        28.86584         0.42964
C         38.89862        29.72259         0.52149
C         40.29717        31.88022         0.84089
C         39.04065        31.20372         0.94103
C         40.27648        33.32306         0.44480
C         39.23702        34.08419         1.24207
C         40.37687        36.13342         0.30048
C         39.44909        35.53182         1.11590
C         40.21559        37.51165        -0.34380
C         39.07039        38.40549         0.23716
C         40.30101        40.35231        -0.84403
C         39.01619        39.72539        -0.51146
C         40.29757        41.83656        -1.00495
C         38.98407        42.55302        -0.99269
C         40.14491        44.36202         0.51988
C         38.86556        43.80379        -0.15815
C         40.06004        45.86893         0.76197
C         38.70416        46.42349         1.12695
C         39.90297        48.12398         2.46107
C         38.90493        47.58489         1.86912
C         42.56083        24.71838        -0.60018
C         41.36811        25.22469         0.16136
C         42.51732        27.49230        -0.62727
C         41.23282        26.69545        -0.39302
C         42.62397        28.79351         0.11473
C         41.40130        29.19186         0.85225
C         42.78460        31.78203         0.64361
C         41.57466        31.33456         1.13017
C         42.77839        33.16538         0.04787
C         41.63902        33.99805         0.67039
C         42.77471        36.00872        -0.34236
C         41.61908        35.40356         0.08506
C         42.70802        37.36481        -1.03360
C         41.59912        38.23188        -0.32774
C         42.80552        40.35982        -0.96526
C         41.49295        39.66257        -0.83357
C         42.85544        41.82836        -0.61520
C         41.56784        42.56990        -0.65702
C         42.64540        44.34293         0.82297
C         41.48538        44.01451        -0.17194
C         42.73100        45.89669         0.99098
C         41.33360        46.60202         1.05533
C         42.51650        48.29562         2.44176
C         41.22433        48.26643         1.74951
C         43.57792        25.36653        -0.85969
C         45.04108        27.43787        -0.47887
C         43.83027        26.81420        -1.13807
C         45.09484        28.80391        -0.00195
C         43.91935        29.49040         0.31584
C         45.15718        31.60258        -0.13483
C         44.06332        30.96152         0.76389
C         45.39976        33.08783         0.22576
C         44.09887        33.88825         0.26156
C         45.36077        35.98747        -0.42454
C         44.07751        35.34182        -0.06776
C         45.35075        37.41669        -0.57873
C         44.12615        38.06382        -1.18415
C         45.29340        40.23233        -0.35975
C         44.08381        39.58586        -0.99794
C         45.28840        41.65649         0.10071
C         44.05471        42.46199        -0.00319
C         45.20424        44.38972         1.01697
C         44.01018        43.75018         0.46506
C         45.09254        45.63759         1.69275
C         43.76074        46.21831         2.12348
C         43.59444        47.69505         2.35779
C         47.48768        27.25755        -0.09787
C         46.34897        26.92457        -0.48705
C         47.68997        28.68017         0.43694
C         46.41596        29.48878         0.12064
C         47.72581        31.61320        -0.26247
C         46.48076        30.85116        -0.04330
C         47.75164        32.95986        -0.53097
C         46.45054        33.73288        -0.70256
C         47.76476        35.93013        -1.03482
C         46.51977        35.24510        -0.52064
C         47.82291        37.40309        -0.67314
C         46.59517        38.09352        -0.64810
C         47.86843        40.32306        -0.34596
C         46.60772        39.57882        -0.65328
C         47.80286        41.72322         0.18126
C         46.56109        42.38378         0.33682
C         47.72135        44.34642         1.22269
C         46.48360        43.72514         0.82273
C         47.48391        45.59558         1.84322
C         46.36629        46.12448         2.05884
C         50.26121        28.85630         0.28946
C         48.93460        29.32515        -0.11091
C         50.29796        31.57766        -0.27596
C         48.99969        30.83425        -0.36924
C         50.28988        32.97010        -0.50903
C         49.02242        33.66072        -1.00750
C         50.27970        35.93056        -1.09709
C         49.02687        35.16347        -0.59916
C         50.27653        37.35101        -0.50066
C         49.08724        38.07580        -0.47787
C         50.29474        40.21020         0.01227
C         49.12216        39.52943        -0.18392
C         50.29425        41.69954         0.10407
C         49.01546        42.38984         0.46924
C         50.18376        44.23506         1.61780
C         48.96992        43.68877         1.06601
C         51.34029        29.46812         0.22172
C         52.65195        31.71449         0.13679
C         51.52395        30.87438         0.06136
C         52.59127        32.95556        -0.05442
C         51.49239        33.76699        -0.42301
C         52.60078        36.02603        -0.57702
C         51.53231        35.14707        -0.69821
C         52.78006        37.28456        -0.55606
C         51.54525        37.99165         0.06373
C         52.68038        40.10293         0.73788
C         51.63816        39.49261        -0.19679
C         52.46855        41.14773         1.40903
C         51.58979        42.18413         1.49836
C         51.17974        43.41924         1.76464
O         44.40596        37.83312        -2.67573
O         38.51280        36.27054         1.84881
O         40.25786        26.99274        -1.43445
O         36.29068        31.71018         2.87841
O         38.76572        33.65956         2.54207
O         42.26185        28.71007        -1.36151
O         33.27742        32.14071         2.92646
O         47.35685        40.20526        -1.73821
O         33.35598        35.81198        -2.04618
O         37.90723        43.67674         0.95738
O         45.11195        40.50217         1.06183
O         48.90535        29.82446        -1.45373
O         44.12123        34.84980         1.36106
O         43.58404        40.19925        -2.21721
O         33.63450        35.23982         1.68052
O         42.44818        42.55108        -1.84138
O         40.72621        46.74809        -0.24363
O         39.79411        42.55889        -2.20158
O         41.58359        30.13373         1.86343
O         44.65867        31.47606        -1.48682
H         45.28876        31.95366        -2.08420
O         45.98176        33.10113         1.53784
H         45.63366        33.89422         2.00765
O         43.94758        27.04441        -2.53927
H         43.43964        27.86019        -2.75124
O         39.75048        37.27236        -1.69112
H         40.51227        36.94628        -2.23501
O         42.53624        33.09866        -1.38569
H         43.17527        32.42000        -1.73895
O         41.15967        49.14372         0.69353
H         40.62327        48.72509        -0.01920
O         43.40665        45.59868         3.37327
H         44.04896        45.88808         4.05476
O         37.03462        37.68207        -2.20179
H         38.02065        37.57460        -2.23017
O         44.50679        30.96014         2.13436
H         43.73933        30.71979         2.69620
O         50.30588        36.07544        -2.52240
H         49.39929        35.90643        -2.87968
O         41.77520        34.04735         2.09769
H         42.61600        34.52217         2.30548
O         41.74717        25.34223         1.52013
H         41.80413        24.44708         1.91390
O         37.58625        41.55904        -2.72610
H         38.45387        41.80695        -3.12968
O         39.36948        38.75180         1.61008
H         39.11798        37.97438         2.16800
O         31.95523        37.62433        -3.45464
H         32.31291        36.72683        -3.63383
O         38.51114        29.88021        -0.91115
H         38.86318        29.11037        -1.41265
O         40.14319        43.75394         1.81864
H         39.22707        43.81893         2.17584
O         35.91514        29.74369        -0.14128
H         36.69474        29.82052        -0.75353
O         37.89706        46.73043        -1.08847
H         37.97687        47.69302        -0.92625
O         33.38337        32.48449        -0.65586
H         32.65487        31.96064        -1.05176
O         42.41288        43.61443         2.03485
H         42.77048        44.10670         2.81062
O         47.84713        28.62164         1.84438
H         47.05339        28.20978         2.24313
O         34.32537        42.41561        -2.92452
H         33.51868        42.62859        -3.43665
O         41.58929        44.82132        -1.35176
H         42.03784        44.27497        -2.04222
O         34.52009        39.20809        -3.11278
H         35.41037        38.79165        -3.18362
O         39.87201        33.45559        -0.93579
H         40.64643        33.18926        -1.49021
O         42.02093        38.34533         1.04661
H         41.24457        38.67780         1.56609
O         49.00862        33.59253        -2.45392
H         49.18087        32.66406        -2.71940
O         34.78608        41.68412         0.60324
H         35.58355        41.51090         1.14665
O         50.93063        42.28597        -0.95409
H         51.55103        41.63917        -1.36954
O         42.21948        37.11567        -2.37147
H         42.85843        36.54022        -2.84309
O         51.55589        37.81590         1.47221
H         51.56886        36.85820         1.67665
O         43.37379        46.40327        -0.18328
H         42.72449        46.30943        -0.92363
O         46.07766        33.56390        -2.10878
H         46.76133        34.05954        -2.62927
O         45.65314        38.44528        -3.03567
H         45.39044        39.37366        -3.26354
O         49.02501        35.21194         0.84128
H         49.64228        34.53287         1.18671
O         47.65261        35.86513        -2.50869
H         47.03879        36.58613        -2.78383
O         52.03443        39.75450        -1.53660
H         52.67299        39.04703        -1.79779
