         720
 CSIRO Nanostructure Databank - Neutral Graphene Oxide Data Set
C         23.42378        27.22171         0.19157
C         23.41960        28.56717        -0.00384
C         23.08991        31.60866         0.55149
C         23.05347        32.96965         0.65677
C         22.93822        35.88798         0.77114
C         22.89011        37.23503         0.78482
C         22.86469        40.24862         0.17923
C         22.92567        41.58115        -0.04300
C         22.92699        44.51789        -0.03108
C         22.92511        45.89325        -0.05644
C         25.56050        24.40041         1.12098
C         24.42826        25.11534         0.92481
C         25.60833        27.23149         1.41210
C         24.48089        26.55339         0.90846
C         25.38664        28.68470         1.63373
C         24.26857        29.38607         0.85688
C         25.58558        31.61987         1.06712
C         24.36076        30.87012         0.64288
C         25.34590        32.99965         1.67486
C         24.20618        33.74482         0.99515
C         25.40494        35.87787         1.02032
C         24.18836        35.15897         0.94198
C         25.41807        37.30574         0.94175
C         24.11393        38.04141         0.93283
C         25.36726        40.19815         0.25797
C         24.07881        39.51754         0.60478
C         25.38094        41.67908         0.18608
C         24.16030        42.35207         0.05553
C         25.38507        44.50285        -0.09600
C         24.14745        43.78652        -0.02825
C         25.37194        45.90700        -0.21771
C         24.14766        46.61472        -0.14689
C         25.33712        48.74868         0.00127
C         24.15034        48.04074        -0.07141
C         27.88700        22.99489         0.34597
C         27.98046        24.32478         0.92194
C         26.84420        25.06182         1.22830
C         28.14155        27.08683         1.74225
C         26.87783        26.50285         1.53850
C         28.34531        28.46320         2.15619
C         26.46131        29.57784         2.12433
C         27.94055        31.58755         2.03731
C         26.67511        30.86843         1.75636
C         27.95876        33.05166         1.79898
C         26.64326        33.84568         1.90504
C         27.94910        35.86584         1.13748
C         26.67823        35.04619         0.92911
C         27.91275        37.35386         1.07133
C         26.60360        38.03170         0.94614
C         27.83218        40.29095         0.87151
C         26.63150        39.46161         0.56583
C         27.86348        41.68437         0.37166
C         26.63365        42.37457         0.16294
C         27.87053        44.50356         0.05995
C         26.64572        43.79604         0.00604
C         27.90213        45.94978        -0.11288
C         26.63770        46.65883        -0.55480
C         27.81137        48.84475        -0.13292
C         26.59318        48.11926        -0.14533
C         27.87329        50.23000         0.00323
C         29.96296        23.32142        -0.96189
C         28.77668        22.53718        -0.56880
C         30.01971        24.75454        -0.40498
C         29.38240        24.88467         0.99766
C         30.63989        27.17814         1.19400
C         29.40522        26.34726         1.47005
C         30.70553        28.70021         1.43655
C         29.35018        29.30997         1.73839
C         30.45131        31.59145         1.39611
C         29.31084        30.79317         1.91213
C         30.42982        33.01687         1.50774
C         29.16071        33.71712         1.70441
C         30.40018        35.97965         1.48935
C         29.14088        35.23250         1.85244
C         30.38632        37.35768         1.36485
C         29.10157        38.11282         1.66892
C         30.36438        40.28194         0.92036
C         29.11209        39.60495         1.29817
C         30.33879        41.66422         0.58750
C         29.09026        42.37594         0.39504
C         30.34554        44.50179         0.19892
C         29.10260        43.79855         0.21032
C         30.36703        46.00354         0.39283
C         29.06484        46.65727        -0.01933
C         30.34018        48.83691         0.01736
C         29.08761        48.09790        -0.48597
C         30.28355        50.30034        -0.35321
C         29.08191        50.94756        -0.22188
C         32.31300        20.69075        -2.46462
C         31.18953        21.19865        -1.91467
C         32.54424        23.15788        -1.03203
C         31.19236        22.61723        -1.48345
C         32.60700        24.67261        -1.06449
C         31.40833        25.38696        -0.51143
C         32.77908        27.45941        -0.21648
C         31.79940        26.51524         0.43491
C         32.73526        28.80001        -0.03095
C         31.45674        29.50365         0.37986
C         32.78746        31.68350         0.67140
C         31.60120        30.95367         0.84917
C         32.82777        33.09128         0.93631
C         31.62441        33.75435         1.30207
C         32.87728        35.96509         1.27208
C         31.67013        35.21000         1.72772
C         32.80571        37.33934         1.03273
C         31.59422        38.09811         1.09253
C         32.76879        40.25380         0.55715
C         31.57637        39.53185         0.86081
C         32.79961        41.66624         0.43230
C         31.56030        42.38137         0.39825
C         32.84315        44.58716         0.30320
C         31.55107        43.79820         0.19815
C         32.78429        45.96547        -0.31392
C         31.58972        46.69663        -0.18767
C         32.76540        48.74107        -0.82340
C         31.58391        48.08637        -0.41343
C         32.75723        50.20304        -1.10369
C         31.50364        51.01453        -0.78856
C         32.88769        53.04290        -0.63360
C         31.69148        52.43008        -0.45143
C         35.73301        18.77086        -2.51449
C         35.62244        20.20000        -2.32117
C         33.58634        21.39496        -2.39077
C         35.06428        23.12843        -1.20882
C         33.76235        22.54884        -1.69181
C         35.12425        24.61891        -1.06720
C         33.93932        25.31950        -0.95893
C         35.26665        27.43144        -0.71531
C         33.92820        26.82246        -1.00447
C         35.22687        28.90143        -0.66087
C         34.02413        29.53187        -0.02252
C         35.32949        31.69698         0.24924
C         34.06071        30.95788         0.40857
C         35.30450        33.11211         0.52021
C         34.07317        33.81131         0.81443
C         35.32487        35.93919         0.97488
C         34.11882        35.24054         1.04301
C         35.34552        37.43160         1.20655
C         34.05605        38.03905         0.67700
C         35.30951        40.25888         0.71037
C         34.02467        39.50283         0.41549
C         35.24942        41.65256         0.11932
C         34.04351        42.37447         0.18975
C         35.17743        44.39793        -0.66911
C         34.07060        43.79426        -0.11695
C         35.19144        45.84210        -1.11857
C         33.96431        46.62052        -0.70531
C         35.24952        48.66572        -1.31636
C         33.95960        48.00171        -0.96347
C         35.27647        50.18183        -1.37151
C         34.03422        50.93598        -1.13712
C         35.33570        53.01933        -1.25833
C         34.07406        52.31562        -1.03528
C         35.33025        54.45670        -1.41684
C         37.68380        18.69047        -1.01840
C         36.67323        18.04150        -1.87277
C         37.62321        20.21418        -0.90409
C         36.48585        20.92492        -1.54735
C         37.62873        23.12054        -0.99731
C         36.35598        22.36370        -1.16099
C         37.61389        24.52267        -0.85662
C         36.40983        25.27401        -0.90732
C         37.73483        27.43550        -0.64744
C         36.44931        26.72183        -0.74791
C         37.77294        28.85472        -0.56895
C         36.51977        29.63937        -0.58971
C         37.78798        31.65670         0.02424
C         36.52053        31.02460        -0.06918
C         37.78423        33.04933         0.47418
C         36.52018        33.79472         0.50169
C         37.84454        35.93273         0.57173
C         36.51484        35.27972         0.34248
C         37.87630        37.42623         0.78837
C         36.55195        38.10495         0.61110
C         37.64062        40.08894        -0.30165
C         36.51300        39.43554         0.30025
C         37.39318        41.30833        -0.90642
C         36.33866        42.18783        -0.58203
C         37.69574        44.36344        -0.35359
C         36.43551        43.63316        -1.03294
C         37.69319        45.87514        -0.53582
C         36.49872        46.56926        -0.79033
C         37.72234        48.71478        -0.79554
C         36.51663        47.97335        -0.96250
C         37.72853        50.15841        -0.98769
C         36.56513        50.88574        -1.19583
C         37.79965        53.08280        -1.71499
C         36.54077        52.32676        -1.31006
C         37.76747        54.54919        -1.32356
C         36.48317        55.18773        -1.42537
C         40.20507        15.87933        -0.87633
C         39.02656        16.55791        -0.87731
C         40.17339        18.73614        -0.78867
C         38.98208        17.99464        -0.89703
C         40.18075        20.23491        -0.51808
C         38.87720        20.97934        -0.78224
C         40.11907        23.12716        -0.90012
C         38.86259        22.37005        -0.88392
C         40.13647        24.49218        -0.83231
C         38.88791        25.21980        -0.39231
C         40.19484        27.40197        -0.59141
C         38.94730        26.71476        -0.62331
C         40.22878        28.82552        -0.48394
C         38.99877        29.54712        -0.42937
C         40.27043        31.67334        -0.24616
C         39.00817        30.97935        -0.22010
C         40.31849        33.10502        -0.00368
C         39.09205        33.78567         0.48541
C         40.28591        35.98676         0.42226
C         39.02159        35.26366         0.45380
C         40.28199        37.33167         0.23224
C         38.98269        38.04686        -0.06315
C         40.30595        40.17655        -0.64269
C         39.03067        39.59324         0.07579
C         40.42383        41.69235        -0.65667
C         39.29699        42.46218        -1.04149
C         40.27938        44.51958        -0.37670
C         39.08213        43.77941        -0.68064
C         40.18609        45.90706        -0.19434
C         38.91203        46.60321        -0.33250
C         40.11986        48.80187         0.00265
C         38.90961        48.02190        -0.41745
C         40.16992        50.27636        -0.22878
C         39.02732        50.89101        -0.97516
C         40.21335        53.15686        -0.78084
C         39.07568        52.35130        -1.28994
C         40.16743        54.51511        -0.77151
C         38.93611        55.24620        -1.06804
C         40.16261        57.35904        -1.04467
C         38.98539        56.70300        -0.96364
C         42.68836        15.98913        -0.44541
C         41.49459        16.59773        -1.12992
C         42.65338        18.80488        -0.87386
C         41.40941        18.07529        -0.84124
C         42.63952        20.17076        -1.11111
C         41.31865        20.88585        -1.31949
C         42.67241        23.08070        -1.15492
C         41.39295        22.35740        -0.95022
C         42.66708        24.56382        -1.33687
C         41.37526        25.27725        -1.08831
C         42.68697        27.37053        -0.66254
C         41.44924        26.70860        -0.72661
C         42.73148        28.80760        -0.49690
C         41.48202        29.52024        -0.45303
C         42.75234        31.64408        -0.61192
C         41.47277        30.94449        -0.41448
C         42.74633        33.17860        -0.45108
C         41.49629        33.81977        -0.02356
C         42.76448        36.00101         0.22965
C         41.55815        35.19348         0.62635
C         42.77560        37.36565         0.32508
C         41.51487        38.11782         0.37944
C         42.83191        40.27605        -0.05053
C         41.52460        39.58126         0.05962
C         42.84153        41.64758        -0.21391
C         41.60184        42.37766        -0.37771
C         42.77694        44.53874        -0.31739
C         41.57080        43.82883        -0.38839
C         42.75523        45.99721        -0.48885
C         41.42519        46.70132        -0.31822
C         42.70880        48.87107        -0.01139
C         41.43469        48.08135         0.30478
C         42.68663        50.30972        -0.16972
C         41.46540        50.99730        -0.26927
C         42.68939        53.21617        -0.44580
C         41.40128        52.49044        -0.12728
C         42.67974        54.56445        -0.42257
C         41.37370        55.32719        -0.33576
C         42.70496        57.33298        -1.18368
C         41.41871        56.55303        -1.26936
C         43.83355        16.69959        -0.33416
C         45.13402        18.75531        -0.94448
C         43.90921        18.08812        -0.74958
C         45.17869        20.15262        -1.31131
C         43.88500        20.84670        -1.50670
C         45.15707        23.10478        -1.67600
C         43.86851        22.34295        -1.66340
C         45.15293        24.51805        -1.21493
C         43.95452        25.25926        -1.11124
C         45.20346        27.29386        -0.60565
C         43.95524        26.64228        -0.79617
C         45.25570        28.73493        -0.10233
C         43.97908        29.50218        -0.40736
C         45.26192        31.63942        -0.33380
C         44.02989        30.91438        -0.43186
C         45.21431        33.09287        -0.19718
C         44.04101        33.81963        -0.16972
C         45.15322        35.91034         0.75319
C         44.05963        35.33936        -0.14350
C         45.14545        37.39838         0.99904
C         43.99302        38.14622         0.44551
C         45.20153        40.29028         0.76649
C         44.01253        39.51866         0.32330
C         45.24060        41.76262         0.47350
C         44.14621        42.38157        -0.37379
C         45.21585        44.55050         0.15339
C         44.05484        43.87349        -0.13517
C         45.17469        46.01789         0.35273
C         44.07034        46.76212        -0.38338
C         45.18328        48.91992        -0.04986
C         43.92988        48.21340         0.01304
C         45.16750        50.34314        -0.22201
C         43.93269        51.01721        -0.31031
C         45.21322        53.20520        -0.55891
C         43.92873        52.44045        -0.81316
C         45.21249        54.60884        -0.47498
C         43.93453        55.38202        -0.21344
C         43.86457        56.75532        -0.84696
C         47.57447        18.72704        -0.92601
C         46.38613        18.06917        -0.80528
C         47.64090        20.14042        -1.18288
C         46.39092        20.83699        -1.39861
C         47.67295        23.03247        -1.22459
C         46.44275        22.30798        -1.62209
C         47.63241        24.38347        -0.98878
C         46.38829        25.14719        -0.95669
C         47.66374        27.21227        -0.42868
C         46.39475        26.54215        -0.67727
C         47.69612        28.66607        -0.49431
C         46.55633        29.47353        -0.45385
C         47.72762        31.72943        -0.30167
C         46.53959        30.94569        -0.40766
C         47.74048        33.12764         0.05608
C         46.48920        33.91802        -0.17266
C         47.70595        35.90680         0.93949
C         46.43271        35.14818         0.73020
C         47.71650        37.38621         1.22320
C         46.41491        38.14909         1.27431
C         47.68389        40.29975         1.02892
C         46.48087        39.60146         1.00861
C         47.69971        41.73590         0.75535
C         46.55228        42.42340         0.46041
C         47.77906        44.62362         0.47251
C         46.55909        43.85938         0.01196
C         47.74446        46.07605         0.45169
C         46.44839        46.79711         0.50027
C         47.63331        48.94059        -0.01299
C         46.42990        48.24035         0.11791
C         47.61971        50.33107        -0.33160
C         46.41710        51.04349        -0.41153
C         47.67479        53.20387        -0.63125
C         46.43890        52.49230        -0.56867
C         47.64490        54.61080        -0.56922
C         46.44206        55.29157        -0.43888
C         50.11877        20.11379        -1.06565
C         48.87993        20.80832        -1.20805
C         50.20363        22.92976        -0.87383
C         48.97047        22.29223        -1.48277
C         50.21246        24.40012        -0.76204
C         48.90324        25.12810        -0.80563
C         50.09966        27.16320         0.26220
C         48.85222        26.51978        -0.32945
C         50.19248        28.60659        -0.16528
C         49.06137        29.12698        -0.71478
C         50.21570        31.69740         0.08182
C         49.05959        31.23973        -0.53620
C         50.26446        33.19350        -0.04403
C         48.92308        33.80139         0.26596
C         50.20364        36.00663         0.41626
C         48.91932        35.27205         0.35250
C         50.12641        37.44666         0.74989
C         48.93633        38.16396         0.92221
C         50.19724        40.29465         0.84752
C         48.96244        39.58703         1.03120
C         50.28236        41.76841         1.13705
C         48.96925        42.49512         0.93335
C         50.21363        44.53574        -0.05070
C         48.96845        43.93673         0.58444
C         50.12606        46.06197         0.00893
C         48.92242        46.77972         0.37928
C         50.22353        48.96302         0.00634
C         48.91657        48.29668         0.49589
C         50.19361        50.28798        -0.65962
C         48.87117        51.01463        -0.74271
C         50.16109        53.07940        -0.99450
C         48.92893        52.48039        -0.79510
C         51.31603        20.76933        -0.92925
C         52.64782        22.86852        -0.49403
C         51.37576        22.20408        -0.78164
C         52.60898        24.25908         0.00239
C         51.40836        25.08071        -0.20613
C         52.68656        27.16669         0.13217
C         51.42206        26.44346        -0.00553
C         52.74046        28.65522        -0.24583
C         51.45524        29.38700         0.24710
C         52.62203        31.62928         0.80074
C         51.52250        30.94243        -0.09929
C         52.80583        33.15397         0.47388
C         51.48238        33.89414         0.48312
C         52.65697        36.01409         0.95725
C         51.49316        35.25979         0.51698
C         52.46334        37.34627         1.17541
C         51.34056        38.12963         0.67656
C         53.09698        40.69393         2.13281
C         51.33131        39.53529         0.51643
C         52.95230        41.98037         1.36473
C         51.59230        42.60301         1.15488
C         52.88281        44.55301         0.06331
C         51.55938        43.98806         0.50517
C         53.01159        45.71696        -0.71741
C         51.14174        46.76605        -0.56575
C         52.69379        48.80663        -0.91959
C         51.46103        48.17285        -0.36086
C         52.71301        50.20474        -0.95307
C         51.47877        50.99756        -0.83547
C         51.39206        52.35810        -1.06532
C         55.10363        22.95508        -0.46762
C         53.86595        22.25745        -0.65935
C         55.17526        24.27272        -0.10881
C         53.92971        24.99761         0.24505
C         55.14642        27.16102         0.50914
C         53.87267        26.47726         0.19562
C         55.36099        28.67196         0.35518
C         54.03121        29.44742         0.19787
C         55.17047        31.53598         1.32860
C         53.96955        30.88872         0.65212
C         55.13890        33.06440         1.47921
C         53.85621        33.82900         1.38788
C         55.21059        36.07464         1.44426
C         53.83761        35.36565         1.66212
C         55.31083        37.55416         1.47092
C         54.33232        38.43018         1.91065
C         55.44506        40.50610         1.33949
C         54.35177        39.88781         1.85719
C         55.37716        41.86202         0.71443
C         54.10729        42.62856         0.98313
C         55.34837        44.63748         0.15911
C         54.11272        43.96621         0.43036
C         55.32643        45.99669        -0.23337
C         54.11392        46.57824        -0.67404
C         55.25451        48.81084        -1.22998
C         53.95539        48.01337        -1.13267
C         55.16845        50.26983        -1.09207
C         53.97448        50.91004        -1.05174
C         57.62927        24.65615        -0.82959
C         56.53204        24.89705         0.18076
C         57.67120        27.16794         0.55487
C         56.41712        26.37827         0.50325
C         57.67045        28.40696         1.23462
C         56.35049        29.15395         1.49161
C         57.70067        31.56939         1.73659
C         56.43463        30.75465         1.60582
C         57.72571        33.01515         1.37897
C         56.41167        33.83999         1.31315
C         57.70882        36.03570         1.43760
C         56.38068        35.33849         1.41135
C         57.82227        37.45393         1.04500
C         56.56039        38.20927         0.99640
C         57.94079        40.40828         1.14071
C         56.62876        39.70842         0.97958
C         57.96805        41.96036         1.10880
C         56.66053        42.63623         0.74653
C         57.88294        44.63847         0.04155
C         56.63418        43.95586         0.37123
C         57.85838        45.99445        -0.34599
C         56.59441        46.76291        -0.28469
C         57.81025        48.67523        -1.44861
C         56.56647        48.16951        -0.83906
C         58.75449        25.39584        -0.77059
C         60.09752        27.13712         0.46837
C         58.86495        26.56881         0.10146
C         60.11615        28.19473         1.37905
C         58.90918        28.80458         1.75442
C         60.03548        31.81668         2.54670
C         58.85837        31.06761         2.33272
C         60.07982        33.16313         2.17181
C         58.97278        33.76625         1.59787
C         60.19376        35.90869         0.90628
C         58.99914        35.24462         1.44616
C         60.22116        37.25034         0.68478
C         59.03802        38.07031         0.81812
C         60.32085        40.31161         0.35274
C         59.16185        39.57229         0.87912
C         60.26823        41.66423         0.09197
C         59.13872        42.50233         0.31516
C         60.27671        44.56946        -0.49684
C         59.10935        43.88931        -0.03800
C         60.24052        45.89787        -0.86564
C         59.03017        46.63594        -0.81654
C         58.96837        47.97074        -1.36817
O         39.79565        49.75155         1.10014
O         34.28566        29.85293         1.40005
O         54.26059        33.23300         2.65747
O         45.91640        22.83648        -2.89035
O         43.66509        21.52453        -2.84457
O         27.34918        28.96978         3.00752
O         51.93532        46.11112        -1.50357
O         49.19140        30.26303        -1.51203
O         41.99520        46.50067        -1.63880
O         49.42580        50.28907        -1.91397
O         24.02982        39.06048         2.00214
O         44.58196        47.00686        -1.68872
O         58.93161        29.75295         2.79298
O         34.61975        20.78147        -3.10309
O         56.64670        47.93477         0.60954
O         28.75007        31.23112         3.18369
O         28.27029        40.31325         2.26429
O         54.61663        48.26413        -2.42343
O         55.66720        26.56351         1.74917
O         30.32287        23.37385        -2.38966
O         32.84745        44.81213         1.71799
O         47.10827        37.74943         2.49418
O         56.42646        38.97088        -0.28062
O         51.47568        43.82529         1.94607
O         44.73492        36.43146         2.03195
O         53.17862        24.40204         1.35002
O         38.35380        41.77125        -1.82281
O         37.24238        19.34329         0.22580
O         30.42918        26.53943         2.50447
O         35.25028        49.35276        -2.59987
O         49.46167        35.87242        -0.89203
O         31.84239        50.63081        -2.17041
O         45.57571        46.50152         1.66425
O         25.37646        31.35516        -0.34014
O         57.06961        33.36820         0.09029
O         51.24193        48.72736         1.00783
O         53.09286        37.95973         2.25717
O         35.74707        29.55621        -1.86349
O         47.14007        35.05509         1.98577
O         52.24538        40.32057         2.91939
O         42.71655        32.54543        -1.77089
O         44.82857        41.29965         1.78708
O         24.10609        29.02295         2.27083
O         26.15439        39.60321        -0.83516
O         49.76065        25.04694        -2.03960
O         58.46161        35.82919         2.69801
O         39.47896        51.34923        -2.30498
O         31.73476        25.49446        -1.93258
O         49.48332        42.16582         2.28509
O         54.25812        30.56277        -0.73709
O         35.48921        22.48811         0.06796
O         41.37186        39.12191         1.44117
O         58.73274        39.94674         2.27704
O         34.10583        38.55442        -0.69833
O         35.41625        40.34371         2.11949
O         41.88706        25.03234        -2.47517
O         42.27805        22.65136         0.19178
O         38.57789        33.23865         1.74010
O         55.47529        31.07449         2.67871
O         28.31506        36.54920        -0.10749
O         51.90913        31.10020        -1.48714
H         51.08082        31.14694        -2.01651
O         39.10839        40.04456         1.43385
H         38.74449        39.34065         2.03032
O         33.68081        27.20399        -2.40202
H         32.85467        26.73424        -2.67495
O         40.49709        20.40474         0.88526
H         39.75126        20.04138         1.40769
O         30.60096        29.53149        -0.79376
H         31.08775        29.95704        -1.53023
O         44.57315        42.19623        -1.77081
H         43.89356        42.60818        -2.34701
O         26.53800        34.37996         3.24018
H         27.43352        34.67523         3.54854
O         31.48159        28.87451         2.64371
H         31.07102        28.31511         3.34046
O         30.32673        48.84724         1.46939
H         30.43605        47.91037         1.79663
O         38.87333        25.09949         1.07568
H         38.79184        24.14647         1.29607
O         50.14154        44.06507        -1.42246
H         49.26060        44.30759        -1.78498
O         31.74443        35.13016         3.23323
H         32.36460        35.82945         3.53693
O         41.36873        56.00354        -2.61644
H         41.31742        56.74748        -3.25121
O         29.17299        48.05926        -1.93269
H         28.38326        47.56336        -2.26331
O         36.61959        43.67589        -2.46379
H         37.35393        43.05529        -2.68912
O         48.86068        48.59588         1.92207
H         49.74171        48.36957         2.29844
O         41.17782        52.72105         1.32737
H         41.79779        52.14430         1.82409
O         30.51635        46.15791         1.85048
H         31.39737        45.69462         2.05635
O         52.76752        28.60824        -1.67945
H         52.84724        29.54126        -1.99525
O         44.32730        35.78773        -1.50410
H         45.14574        35.32635        -1.82252
O         37.51661        44.09436         1.05601
H         38.21402        44.56106         1.56224
O         37.78530        53.10649        -3.17107
H         38.24101        52.28342        -3.46726
O         53.38010        33.29279        -0.83976
H         52.84642        32.72418        -1.45034
O         28.96213        38.11475         3.10543
H         28.95177        37.17792         3.42504
O         49.90660        27.05129         1.70237
H         50.53129        27.70061         2.11369
O         29.16987        25.55256        -1.25984
H         29.49821        25.41610        -2.17782
O         24.79630        32.65715         2.97319
H         25.14312        33.32285         3.61634
O         56.98460        24.25855         1.41095
H         56.41965        24.62003         2.13105
O         28.99233        35.43207         3.31369
H         29.87689        35.17880         3.69256
O         26.73176        34.48293        -0.39901
H         27.10984        35.17689        -0.98666
O         38.18273        37.64308         2.20182
H         37.33259        37.54054         2.70473
O         55.22577        41.52660        -0.72887
H         54.31208        41.19631        -0.86995
O         43.95298        55.64457         1.23099
H         43.05046        55.98063         1.46030
O         35.40928        37.71895         2.63956
H         35.39168        38.73803         2.69589
O         56.07351        28.81583        -0.89297
H         55.75081        29.64018        -1.32831
O         38.62967        37.75609        -1.43287
H         39.33248        38.14245        -2.00867
O         45.29014        28.62389         1.36435
H         44.46508        28.17914         1.65288
O         46.65289        34.45636        -1.53760
H         46.81343        33.69948        -2.14143
O         40.33845        39.72218        -2.02182
H         39.71018        40.28929        -2.52466
O         58.22539        42.40014         2.48111
H         58.79360        41.70400         2.89229
O         41.45278        47.82111         1.73495
H         41.02228        48.59312         2.16957
O         49.17825        22.43050        -2.93149
H         49.33204        23.39345        -3.09366
O         55.80612        28.73876         2.74107
H         56.43472        28.98030         3.45149
O         50.38905        33.40307        -1.53033
H         50.19943        34.36682        -1.67993
O         52.17461        31.59426         2.16814
H         52.89722        31.96963         2.73380
O         32.61678        25.83920         1.44083
H         32.79287        26.47998         2.16395
O         41.71529        34.92494         2.05374
H         41.87192        35.77775         2.51366
O         52.42174        40.09897        -0.09783
H         53.07659        39.39547        -0.28979
O         46.79470        43.82510        -1.45066
H         46.06031        43.28446        -1.84414
O         43.84509        52.29081        -2.27587
H         44.58282        51.71237        -2.56560
O         41.75273        16.47978        -2.58506
H         41.04421        16.97541        -3.04829
O         26.70302        46.68579        -2.03749
H         25.87388        47.10063        -2.35980
O         41.18758        55.76844         1.03402
H         41.00958        54.95599         1.56158
O         53.57133        35.55210         3.06724
H         54.06861        34.86073         3.56203
O         32.59994        22.80177         0.38027
H         33.54389        22.73997         0.65392
O         35.09312        45.83604        -2.57462
H         35.75805        45.19607        -2.92403
O         30.12421        24.06883         1.91296
H         30.79500        24.64746         2.34848
O         51.48182        29.19752         1.68532
H         51.36647        30.06290         2.15130
O         36.30012        35.46548        -1.12898
H         35.33995        35.36768        -1.30976
O         40.98587        20.78576        -2.72356
H         41.79090        21.05959        -3.22865
H         22.71062        26.58421        -0.35161
H         22.75551        29.04412        -0.73765
H         22.16887        31.04461         0.34426
H         22.10068        33.47650         0.44869
H         21.99862        35.32732         0.68501
H         21.92348        37.75358         0.72414
H         21.90283        39.72140         0.11109
H         22.00304        42.10615        -0.32535
H         21.96813        43.98788         0.03427
H         21.97851        46.44963        -0.00564
H         25.51177        23.30463         1.12745
H         23.46439        24.61739         0.74953
H         25.29051        49.83240         0.17643
H         23.19041        48.56857         0.01793
H         27.01964        22.36073         0.57863
H         26.95782        50.81251         0.18133
H         28.62626        21.54822        -1.02448
H         29.01626        52.03773        -0.35285
H         32.31781        19.69032        -2.91905
H         30.24073        20.64688        -1.96981
H         32.98278        54.10543        -0.37129
H         30.85610        52.98360         0.00062
H         35.02095        18.29244        -3.20049
H         34.36810        54.98080        -1.48914
H         36.77709        16.96915        -2.09226
H         36.41963        56.28449        -1.45599
H         40.21622        14.78158        -0.81185
H         38.08005        16.00556        -0.78346
H         40.20753        58.45744        -0.99356
H         38.04784        57.26755        -0.85920
H         42.63941        14.94198        -0.11286
H         42.69565        58.37266        -1.55146
H         44.72498        16.21983         0.09485
H         44.78816        57.35407        -0.86754
H         48.50145        18.15401        -0.79923
H         46.39292        16.99218        -0.59342
H         48.58313        55.18146        -0.58552
H         46.45926        56.38332        -0.32168
H         50.13144        19.01567        -1.05509
H         50.22208        54.17227        -1.09411
H         52.23835        20.18031        -0.84120
H         52.29640        52.94493        -1.27768
H         56.03453        22.40059        -0.65489
H         53.92209        21.21636        -1.00583
H         56.10269        50.84032        -0.98587
H         53.96887        52.00467        -0.96155
H         57.56108        23.79195        -1.50666
H         57.77955        49.63103        -1.99187
H         59.61445        25.15555        -1.41469
H         61.03812        26.68522         0.12379
H         61.06241        28.56255         1.79641
H         60.89500        31.33401         3.02670
H         60.98643        33.75458         2.35914
H         61.07511        35.29368         0.67325
H         61.15176        37.71810         0.33328
H         61.23380        39.75941         0.08895
H         61.16398        42.11309        -0.36281
H         61.23410        44.03390        -0.54851
H         61.15565        46.39478        -1.21848
H         59.88755        48.38074        -1.81260
