         300
 CSIRO Nanostructure Databank - Neutral Graphene Oxide Data Set
C         30.88831        31.90197         2.40326
C         30.66891        32.98258         1.85351
C         30.47509        36.19351         1.25588
C         30.43063        37.40936         1.04273
C         30.33246        40.69938         0.53496
C         30.29869        41.86736         0.10709
C         33.17044        29.02621         1.90084
C         32.26265        29.68510         2.42449
C         32.97069        31.64199         1.15713
C         32.20429        31.17961         2.47437
C         32.63289        32.92262         0.35787
C         31.37080        33.72715         0.81243
C         32.53233        35.94895        -0.05084
C         31.33124        35.19894         0.58959
C         32.59755        37.47467        -0.04694
C         31.56215        38.33702         0.81258
C         32.70086        40.52468         0.27656
C         31.33877        39.65653         0.07635
C         32.68505        41.79296        -0.61680
C         31.38643        42.84833        -0.04100
C         32.63046        44.44292        -1.42911
C         31.57621        43.90740        -1.06211
C         35.70984        27.30833         1.00804
C         35.30810        28.62165         0.48404
C         33.94722        29.30297         0.66336
C         34.93021        31.46786        -0.36654
C         33.95369        30.86812         0.62510
C         35.00746        33.07200        -0.41928
C         33.91061        33.81527         0.37222
C         35.13133        35.94590        -0.77927
C         33.81172        35.19950        -0.30086
C         35.24753        37.37835        -0.20589
C         33.91801        38.17267        -0.25322
C         35.26966        40.34651        -0.03822
C         33.97712        39.63922         0.15051
C         35.29441        41.84237        -0.31066
C         34.01654        42.56302        -0.65548
C         35.16074        44.63793        -1.62208
C         33.98430        44.16232        -0.80234
C         36.25854        45.17482        -0.94512
C         38.17857        27.25402         0.72975
C         36.80269        26.74362         1.00400
C         37.96536        28.76006         0.33179
C         36.60011        29.36998         0.19866
C         37.66482        31.57768        -0.27987
C         36.57034        30.86093         0.44717
C         37.36627        32.80037        -0.79689
C         36.38544        33.71191        -0.12690
C         37.66577        35.84769        -0.64902
C         36.46187        35.19325        -0.51876
C         37.79750        37.34448        -0.93368
C         36.45246        38.13078        -0.84874
C         37.75130        40.38031        -0.24232
C         36.47036        39.61867        -0.60437
C         37.70375        41.84394        -0.80386
C         36.59618        42.52797         0.01250
C         37.95918        44.16473         1.34724
C         36.77379        43.29723         1.14313
C         37.70737        45.68756         1.20686
C         36.93110        45.77894        -0.09987
C         40.62138        25.26948         2.18135
C         39.53088        25.84840         2.36259
C         40.54626        27.90938         1.43393
C         39.14197        27.22051         1.91908
C         40.41571        29.07143         0.48603
C         39.06210        29.49993         0.01075
C         40.15848        31.58491        -1.13253
C         38.90610        30.83833        -0.66294
C         40.26915        33.07341        -1.16699
C         39.11203        33.86698        -1.24748
C         40.21381        35.82494        -0.46626
C         38.98783        35.17270        -0.74625
C         40.16744        37.34368        -0.56589
C         38.89923        38.07556        -0.14545
C         40.25522        40.31494        -0.36328
C         38.98157        39.60128        -0.72440
C         40.29762        41.70111        -0.39036
C         39.09454        42.51517        -0.78408
C         40.45966        44.41873         1.13647
C         39.22439        43.64779         1.47764
C         40.30708        45.89744         1.00032
C         38.95892        46.50056         1.21731
C         40.11052        48.68452         1.24335
C         39.10431        47.87508         1.26219
C         43.09957        25.06854         1.48217
C         41.91969        25.68379         1.86177
C         42.88530        27.52743         0.35115
C         41.96422        27.23284         1.58829
C         42.96770        28.95422        -0.12058
C         41.64821        29.67660        -0.15800
C         42.75388        31.57159        -1.41041
C         41.48551        30.86457        -1.06098
C         42.76036        33.09864        -1.58085
C         41.49398        33.75423        -0.98325
C         42.68464        35.70260         0.01606
C         41.44542        35.13248        -0.65107
C         42.68168        37.25005         0.13220
C         41.40998        38.03353        -0.00216
C         42.76436        40.17450        -0.34753
C         41.45497        39.58026         0.17597
C         42.76732        41.67539        -0.47097
C         41.53438        42.37062        -0.09836
C         42.83152        44.56000         0.04407
C         41.64533        43.71417         0.48601
C         42.62745        46.04071        -0.14659
C         41.31640        46.70277         0.22110
C         42.53115        48.81082         0.16817
C         41.18267        48.28123         0.31979
C         44.18028        25.51025         0.96937
C         45.29010        27.28097        -0.52391
C         44.07908        26.64562         0.02413
C         45.29527        28.66950        -1.02536
C         44.13605        29.42132        -0.93543
C         45.38171        31.58942        -1.59593
C         44.08528        30.83587        -1.39018
C         45.39933        33.10073        -1.50379
C         44.06923        33.71110        -1.07440
C         45.28373        35.89288        -0.42209
C         44.02837        35.04887        -0.40165
C         45.18097        37.15911         0.40737
C         44.00189        37.98144        -0.20036
C         45.19986        40.21499         0.18114
C         44.03342        39.50112         0.03341
C         45.34029        41.63225        -0.33264
C         44.06942        42.41859        -0.61535
C         45.34901        44.70912        -0.56857
C         44.03921        43.92689        -0.65083
C         45.28312        46.28735        -0.39400
C         43.88999        46.86998        -0.38652
C         43.61750        48.28969        -0.10342
C         47.66520        27.30261        -0.74838
C         46.54391        26.73121        -0.45922
C         47.90551        28.56241        -1.17437
C         46.60604        29.29971        -1.44093
C         47.98940        31.59110        -1.25690
C         46.68448        30.82144        -1.54567
C         47.71177        32.87748        -0.40631
C         46.67074        33.78005        -1.08441
C         47.87460        35.94575        -0.19689
C         46.60902        35.24390        -0.67329
C         47.81616        37.35820         0.34183
C         46.46733        37.99368         0.59017
C         47.66449        40.34526         1.10148
C         46.42643        39.50754         0.66961
C         47.85478        41.72042         0.45706
C         46.63331        42.40472        -0.14123
C         47.74191        44.70737         0.49862
C         46.61953        43.93996        -0.23224
C         47.20306        45.97368         0.97034
C         46.09787        46.52588         0.88405
C         50.42031        28.68715        -0.82748
C         49.18806        29.31066        -1.41122
C         50.35142        31.39682        -0.23607
C         49.02479        30.65377        -0.54008
C         50.07950        32.69657         0.62813
C         49.04080        33.59119        -0.07394
C         50.15910        35.73442         0.94983
C         49.07681        35.08418         0.11620
C         50.30396        37.22310         0.77361
C         49.03927        38.03049         0.95026
C         50.24693        40.38974         1.33457
C         49.00464        39.52612         1.21605
C         49.98510        41.75087         1.99347
C         49.00300        42.50061         1.03243
C         49.70689        44.56974         2.24412
C         48.92156        44.02347         1.09173
C         51.40610        29.19513        -0.28706
C         52.68999        31.33242         0.54470
C         51.45994        30.44694         0.51228
C         52.46284        32.54590         0.83591
C         51.40929        33.44688         0.85580
C         52.55233        35.71484         1.15995
C         51.39142        34.84375         1.24805
C         52.67038        36.88949         0.78471
C         51.54379        37.76930         0.52849
C         52.53611        41.06911         0.93018
C         51.47818        40.10374         0.77027
C         52.38491        42.09334         1.65695
C         51.26423        42.70235         2.19507
C         50.83065        43.99146         2.42804
O         34.85415        42.03824        -1.71671
O         49.03427        44.70944        -0.15627
O         42.81425        43.96146         1.37482
O         44.16391        33.80887         0.37902
O         44.62813        31.09210        -2.73131
O         34.87688        39.89219         1.29294
O         34.92222        30.94036        -1.55323
O         42.64838        29.95543         0.89584
O         33.00243        37.97762        -1.34605
O         46.31458        41.75379        -1.40576
O         49.60291        34.42890        -1.09905
O         32.80236        35.32613        -1.33332
O         45.92472        36.03048        -1.69471
O         43.08951        46.41085        -1.48767
O         36.22718        39.06627        -1.92528
O         38.01912        33.30535        -1.90959
O         44.06535        37.95776        -1.58233
O         46.25517        38.64024         1.87356
O         35.80538        28.79525        -0.86965
O         39.24612        43.65382        -1.20133
O         40.75977        47.53276        -0.83340
O         40.88934        45.29792         2.22391
O         39.27444        30.89559        -2.07020
O         30.65891        34.29158        -0.30763
O         41.99424        30.81579        -2.42722
O         48.14288        37.09500        -1.05670
O         41.85214        37.52973         1.30828
O         40.53541        29.25026         1.96441
O         43.94956        43.18001        -1.87283
O         49.06405        41.94159        -0.30953
O         48.88127        38.53868         2.31123
O         42.61244        40.76647        -1.64505
O         39.97970        37.47808        -2.04017
O         46.32383        33.63640        -2.48586
O         42.85752        26.62418        -0.78212
O         38.46675        37.33668        -2.27155
O         46.75325        29.97113        -2.73002
O         50.40839        35.19014         2.27672
O         46.32742        44.37901        -1.57846
O         51.75444        39.00715        -0.00791
O         32.37886        32.48104        -0.96981
H         31.94567        33.21998        -1.45761
O         33.16940        28.94373        -0.47244
H         33.61904        29.34479        -1.25630
O         31.72193        43.43193         1.18496
H         31.66190        42.73898         1.88327
O         42.68600        33.39530        -2.98157
H         42.25664        32.63478        -3.43522
O         39.38660        42.38972         1.94138
H         40.33156        42.16676         2.07288
O         32.94537        31.65865         3.56886
H         32.57043        31.28968         4.39418
O         49.41636        41.62903         3.28169
H         49.82901        40.87763         3.75325
O         38.88298        39.69850        -2.15703
H         39.68715        39.31737        -2.57868
O         32.34098        41.47758        -1.95473
H         33.17614        41.34046        -2.46188
O         49.38617        29.62048        -2.77505
H         49.33002        28.79727        -3.30244
O         38.79764        26.59566        -0.35532
H         38.15366        26.50447        -1.08836
O         47.06465        32.52295         0.82303
H         47.72311        32.08427         1.41811
O         51.04411        30.16292         1.83951
H         51.71444        29.58651         2.26477
O         42.46978        35.23253         1.37593
H         43.26894        35.48588         1.89593
O         38.58077        27.98916         2.94297
H         39.20306        28.04205         3.69634
O         34.17406        34.03705         1.76373
H         35.12970        34.23670         1.90040
O         45.96277        46.85381        -1.48029
H         45.69735        47.79072        -1.58168
O         48.52313        32.05521        -2.49412
H         48.33140        31.38245        -3.18799
O         34.01975        44.78302         0.45563
H         33.16047        44.60319         0.91539
O         42.59073        27.83562         2.71510
H         42.37326        28.79944         2.68740
O         31.01383        39.33615        -1.23880
H         31.03553        40.14407        -1.80126
O         44.79428        36.68736         1.71784
H         45.01824        37.39902         2.36455
O         38.70088        38.04507         1.26537
H         39.57626        38.11651         1.70737
O         48.43109        30.24089         0.69891
H         49.11086        29.76318         1.22759
O         49.53219        32.36897         1.91245
H         50.12773        31.71735         2.35328
O         41.41512        39.89038         1.60636
H         41.84637        39.12801         2.07035
O         35.56809        37.22960         1.19488
H         35.52428        38.12625         1.61241
O         32.18321        38.57271         2.08866
H         31.94402        37.84805         2.70432
O         36.72199        33.68742         1.30725
H         37.48271        34.29203         1.44953
O         32.70369        41.05793         1.61212
H         32.71564        40.29034         2.23645
O         35.72987        43.54758         1.98210
H         34.98253        42.94561         1.78842
O         47.29572        40.74963         2.44130
H         47.25028        39.93193         2.98795
O         35.11659        44.55755        -2.92405
H         34.27675        44.15807        -3.23613
O         35.04446        36.09665        -2.19109
H         34.82837        35.21134        -2.56820
O         36.42844        31.08734         1.80783
H         36.60748        32.03928         2.00591
O         37.75311        40.51013         1.18406
H         37.94795        39.62546         1.58044
O         50.96522        31.78808        -1.44716
H         50.26814        32.07971        -2.08994
O         36.85003        46.12835         2.24594
H         36.06798        45.53460         2.28113
O         37.31004        41.83986        -2.17524
H         37.79708        41.11557        -2.63571
O         34.79265        33.38532        -1.80519
H         34.73927        32.50241        -2.27089
