         232
 CSIRO Nanostructure Databank - Neutral Graphene Oxide Data Set
C        -10.98232         0.61781         0.90630
C         -9.77201         1.42347         0.81725
C         -8.49912         0.70310         0.81601
C         -7.30708         1.41146         0.39222
C         -6.13595         0.74170         0.10226
C         -5.04783         1.35078        -0.69906
C         -3.73607         0.61623        -0.82527
C         -2.47507         1.38171        -0.95418
C         -1.27937         0.65445        -0.98033
C          0.01372         1.42557        -0.79210
C          1.25468         0.71441        -1.29266
C          2.53647         1.43529        -0.99602
C          3.68357         0.60028        -0.53092
C          4.90218         1.30383        -0.03676
C          6.21744         0.66450        -0.21513
C          7.34897         1.37291         0.02688
C          8.60258         0.63855         0.29261
C          9.88297         1.40619         0.52930
C         11.12934         0.62854         0.38867
C         -9.82588         2.79352         0.66166
C         -8.65204         3.59620         0.43394
C         -7.36248         2.88588         0.27965
C         -6.21871         3.61176        -0.34184
C         -5.06861         2.83805        -0.91117
C         -3.77307         3.58852        -1.02568
C         -2.48198         2.84336        -0.96130
C         -1.31278         3.56675        -0.96757
C         -0.01716         2.87014        -1.32121
C          1.21299         3.63599        -0.86519
C          2.49060         2.90262        -0.74117
C          3.57066         3.55043         0.06042
C          4.85101         2.76647         0.33541
C          6.09612         3.55845         0.41426
C          7.36586         2.88535        -0.06751
C          8.62999         3.57245         0.40977
C          9.83561         2.87923         0.46037
C         -8.65823         4.97192         0.35988
C         -7.49904         5.75117        -0.03807
C         -6.37229         5.05628        -0.81732
C         -5.02373         5.75035        -0.62042
C         -3.79470         5.04906        -0.73086
C         -2.57657         5.74482        -0.62457
C         -1.30604         5.07472        -1.11360
C         -0.02421         5.71785        -0.62864
C          1.20315         5.01892        -0.68441
C          2.53421         5.78139        -0.54672
C          3.63065         4.98326         0.09202
C          4.72760         5.61394         0.90425
C          6.05949         4.90775         0.64349
C          7.30937         5.68098         0.66775
C          8.55398         4.97462         0.58308
C         -7.45624         7.10830         0.05479
C         -6.34621         7.86686        -0.65108
C         -5.03057         7.14068        -0.48439
C         -3.81665         7.83813        -0.27900
C         -2.59969         7.11918        -0.31091
C         -1.36369         7.82810         0.04435
C         -0.05427         7.08609        -0.10015
C          1.20105         7.91110        -0.26854
C          2.34798         7.06519         0.30465
C          3.64474         7.81683         0.46144
C          4.78324         7.11511         0.73683
C          6.03122         7.80294         1.21973
C          7.28291         7.05784         0.82830
C         -6.25267         9.31555        -0.25707
C         -5.07807         9.95150        -0.02794
C         -3.80143         9.26898        -0.07319
C         -2.59022         9.96328         0.06955
C         -1.34519         9.29651         0.12300
C         -0.10683         9.95718         0.36442
C          1.12843         9.30413         0.30693
C          2.38415         9.95169         0.51687
C          3.60133         9.26789         0.51945
C          4.88035         9.94664         0.63889
C          6.02836         9.27209         0.88506
C        -10.96065        -0.71682         1.11288
C         -9.68742        -1.44643         1.44772
C         -8.46967        -0.65930         1.03588
C         -7.18886        -1.37016         1.07862
C         -5.94198        -0.62466         0.58893
C         -4.75511        -1.41574         0.22388
C         -3.63021        -0.77766        -0.32259
C         -2.44130        -1.50613        -0.58982
C         -1.27097        -0.77843        -1.03089
C         -0.03028        -1.50548        -1.32894
C          1.27810        -0.77238        -1.34531
C          2.53666        -1.52799        -1.11436
C          3.74922        -0.82838        -0.95780
C          4.98316        -1.50315        -0.81846
C          6.28460        -0.72659        -0.82291
C          7.48519        -1.50874        -0.34054
C          8.65478        -0.80959         0.01365
C          9.88035        -1.50095         0.19331
C         11.10897        -0.72745         0.32447
C         -9.61174        -2.87581         0.95049
C         -8.41871        -3.54480         0.84365
C         -7.15106        -2.83498         0.97890
C         -5.93905        -3.49716         0.90258
C         -4.70432        -2.78582         0.60236
C         -3.46350        -3.48123         0.45077
C         -2.38118        -2.89533        -0.23791
C         -1.37123        -3.73962        -1.05086
C         -0.00057        -3.04577        -1.20261
C          1.25770        -3.64942        -0.76800
C          2.50694        -2.93955        -0.89565
C          3.76239        -3.59206        -0.69525
C          4.98948        -2.91113        -0.80756
C          6.29214        -3.64958        -0.83125
C          7.50567        -2.90966        -0.42698
C          8.69708        -3.62621        -0.12763
C          9.88272        -2.90550         0.13092
C         -8.35007        -4.95500         0.49158
C         -7.20172        -5.69387         0.59496
C         -5.95618        -4.98743         1.06725
C         -4.61098        -5.64354         1.25626
C         -3.36394        -4.76789         1.21835
C         -2.41997        -5.97101        -0.74485
C         -1.28892        -5.20681        -0.68077
C         -0.04240        -5.79719        -0.12960
C          1.22696        -4.98050        -0.12551
C          2.52366        -5.72162         0.03576
C          3.80612        -5.00210        -0.25463
C          4.98045        -5.80900        -0.62395
C          6.31499        -5.16727        -0.80386
C          7.53755        -5.83714        -0.23974
C          8.65543        -5.06642        -0.00599
C         -7.21843        -7.08567         0.12496
C         -6.39739        -8.07698         0.57732
C         -4.48332        -7.11475         1.10422
C         -3.59081        -7.91858         0.47266
C         -2.44917        -7.39231        -0.30607
C         -1.14824        -8.09879        -0.13865
C          0.08124        -7.28562        -0.05673
C          1.27516        -7.91286         0.19932
C          2.52164        -7.20066         0.05066
C          3.70043        -7.89992        -0.17438
C          4.82945        -7.16391        -0.68571
C          6.68907        -8.20087        -0.18304
C          7.54985        -7.22431         0.23825
C         -6.11920        -9.36210        -0.06681
C         -4.90944        -9.97313        -0.03907
C         -3.69199        -9.43295         0.71225
C         -2.38599       -10.15779         0.45749
C         -1.14984        -9.50326         0.36079
C          0.08977       -10.14025         0.49584
C          1.34453        -9.33647         0.70626
C          2.65181       -10.02849         0.39911
C          3.79966        -9.34310         0.09611
C          5.08710       -10.02033         0.32053
C          6.35320        -9.50677         0.36333
O         -2.02697        -3.71778        -2.35676
H         -1.54656        -3.04469        -2.90853
O          0.02079         2.81291        -2.76502
H         -0.15660         3.72397        -3.09867
O         -1.89852        -8.16366        -1.43444
O         -4.72070         0.64936        -1.94249
O         -5.46253        -5.33050         2.41245
O          6.54619        -0.45982        -2.24544
H          6.59450        -1.32383        -2.70855
O          2.97644         6.10487        -1.88855
H          2.24123         6.59129        -2.33239
O          0.21243         1.49587         0.64742
H         -0.54944         1.96606         1.04772
O          5.86280        -7.89143        -1.28211
O          3.88703         2.97133         1.41507
O          1.92815         6.66170         1.62309
H          2.70400         6.27031         2.09604
O          4.00530         0.57869         0.89888
O         -1.29839         5.30913        -2.58127
H         -2.18196         5.04510        -2.92323
O         -3.57777        -5.54605        -1.31985
H         -3.37023        -4.74019        -1.86209
O          2.96412         2.36493        -2.04302
O          7.36784         3.10656        -1.52438
H          7.45733         4.07113        -1.68061
O          1.39798        -9.18665         2.18497
H          0.70218        -8.54522         2.44754
O         -9.65430        -1.53985         2.91599
H         -8.74546        -1.80219         3.17742
O          1.35838         8.11628        -1.70216
H          2.05869         8.78939        -1.83929
O         -6.67133         7.83695        -2.07288
H         -6.74552         6.86205        -2.32455
O          5.99572         7.72383         2.69254
H          5.57698         6.85958         2.92575
O         -6.72387         5.14727        -2.17378
O         -3.90183        -9.70044         2.12485
H         -4.69172        -9.17786         2.40728
O          3.34348        -5.16952         1.13994
O         -4.59466         3.25157        -2.20680
O          4.40168         5.41406         2.34469
H          4.23942         4.43664         2.44499
O         -6.26709         3.50195         1.10577
O          0.40320        -5.10036         1.09615
O         -0.68190         7.20351         1.20836
O          0.02168        -2.38817        -2.51409
O          1.26783         0.07711        -2.57890
O          6.49436        -4.44409        -2.06519
O         -6.23615        -0.78696         2.02300
O         -5.59256        -7.76891         1.70167
O         -2.39750        -5.04893         1.90553
O          9.05467         0.92634         1.67357
H         12.05955        -1.28077         0.28609
H         12.08743         1.16949         0.37883
H         10.77128         3.43914         0.61871
H          9.47976         5.53561         0.78388
H          8.23886         7.60426         0.86238
H          6.98010         9.81912         0.96443
H          4.90046        11.03924         0.50460
H          2.38946        11.03678         0.70637
H         -0.12896        11.03094         0.60925
H         -2.61347        11.05800         0.18202
H         -5.07304        11.02886         0.19969
H         -7.19092         9.89118        -0.23341
H         -8.27603         7.66871         0.53219
H         -9.59461         5.51607         0.56336
H        -10.80414         3.29803         0.68504
H        -11.94342         1.13174         0.74965
H        -11.90263        -1.28437         1.15243
H        -10.55216        -3.43554         0.82691
H         -9.27983        -5.44545         0.16549
H         -7.94099        -7.32217        -0.67177
H         -6.92240        -9.79868        -0.68244
H         -4.79212       -10.91865        -0.59216
H         -2.38463       -11.23117         0.70682
H          0.11726       -11.20492         0.77672
H          2.71824       -11.09238         0.67728
H          4.97119       -11.04850         0.70308
H          7.15221       -10.12530         0.80205
H          8.27393        -7.46211         1.03269
H          9.55938        -5.55834         0.38564
H         10.82077        -3.45486         0.30016
