         260
 CSIRO Nanostructure Databank - Neutral Graphene Oxide Data Set
C         30.27186        31.67128         0.20994
C         30.33490        32.90393         0.22942
C         30.79803        36.01373        -0.34287
C         30.61579        37.12826        -0.95377
C         30.96018        40.23025        -2.00794
C         31.01497        41.41250        -2.41217
C         32.59250        28.69746         0.38460
C         31.57889        29.35311         0.09406
C         32.58457        31.43769         1.03180
C         31.25328        30.68035         0.62497
C         32.61977        32.94064         1.18887
C         31.35016        33.79044         0.79732
C         32.68366        35.92435         1.22327
C         31.50324        35.21296         0.50398
C         32.78102        37.40213         0.86800
C         31.09222        38.33681        -0.36422
C         32.65576        40.31659        -0.26007
C         31.53714        39.51854        -0.92409
C         32.77155        41.76603        -0.64138
C         31.32104        42.53592        -1.46187
C         32.96530        44.39290        -1.69874
C         31.91729        43.78518        -1.93014
C         35.46647        27.08783         0.67405
C         35.23038        28.53461         0.87525
C         33.91294        29.22075         0.76772
C         35.16452        31.45579         0.53054
C         33.86297        30.73237         0.62763
C         35.24737        32.87057         1.04803
C         33.97712        33.66271         1.48095
C         35.24178        35.91704         1.10950
C         33.96094        35.12877         0.81330
C         35.23355        37.47791         1.01336
C         33.90304        38.09434         0.56250
C         35.21888        40.37165         0.32334
C         33.89734        39.60827         0.33523
C         35.34198        41.77565        -0.19119
C         34.14346        42.39493        -0.84112
C         35.54729        44.59757        -1.34539
C         34.27948        43.78782        -1.41874
C         35.54968        45.90601        -0.63526
C         37.90089        27.20408         0.81661
C         36.59502        26.61400         0.87421
C         37.79947        28.59860         0.63326
C         36.52215        29.31417         0.64471
C         37.66926        31.43968         0.06956
C         36.45834        30.68693         0.49747
C         37.63383        32.95230        -0.01229
C         36.52399        33.62166         0.78215
C         37.76866        35.86910         0.63953
C         36.52766        35.12512         1.03027
C         38.08806        37.15878         1.34670
C         36.24411        38.14758         0.05495
C         37.71447        40.22541         0.49619
C         36.51540        39.59863         0.37007
C         37.71046        41.72791         0.54305
C         36.55407        42.41105        -0.14400
C         37.83422        44.63519         0.08589
C         36.73488        43.83529        -0.58215
C         37.66196        46.09747         0.58015
C         36.45984        46.59538        -0.16947
C         40.46881        24.55183         1.22151
C         39.35436        25.09017         1.02649
C         40.33589        27.14566         0.41086
C         39.14744        26.50864         0.79542
C         40.41138        28.60102         0.49946
C         39.06858        29.35848         0.63632
C         40.27958        31.57538         0.15605
C         39.01671        30.76289         0.12508
C         40.24648        33.00344        -0.21925
C         38.92036        33.69788        -0.29656
C         40.19611        35.94713        -0.14245
C         38.90928        35.19161        -0.06827
C         40.18584        37.38893         0.23425
C         39.08752        38.04470         0.69980
C         40.23901        40.32013         0.47361
C         39.03258        39.54399         0.97575
C         40.33713        41.74810         0.99214
C         38.98903        42.48177         0.83748
C         40.23540        44.64082         0.51006
C         39.05336        43.94674         0.60365
C         40.25448        46.13014         0.51751
C         38.95308        46.85567         0.48919
C         40.22190        48.94441         0.47145
C         39.17449        48.23189         0.47256
C         43.05600        24.72769         0.87976
C         41.73775        25.01682         0.78311
C         42.71385        27.09978        -0.60633
C         41.46928        26.28953        -0.14594
C         42.70555        28.60437        -0.75507
C         41.75194        29.31084         0.21496
C         42.79469        31.60170        -0.38617
C         41.62633        30.83444         0.07126
C         42.73182        32.98113        -0.28161
C         41.45715        33.68277        -0.21596
C         42.70819        35.87704         0.17798
C         41.47776        35.18079        -0.31552
C         42.70364        37.38782         0.29471
C         41.43831        38.11943        -0.06173
C         42.74893        40.33448        -0.04151
C         41.42371        39.62419        -0.02614
C         42.73635        41.81890         0.09214
C         41.48232        42.54720         0.39073
C         42.70907        44.63396        -0.18149
C         41.48731        43.91402         0.32657
C         42.74996        46.15141        -0.40366
C         41.52432        46.89223         0.15329
C         42.84053        48.89548         0.30243
C         41.47329        48.49142        -0.21862
C         44.02943        25.34637         0.27798
C         45.19249        27.00578        -1.32136
C         44.06772        26.43341        -0.52396
C         45.21382        28.55943        -1.36790
C         43.96073        29.36824        -1.19223
C         45.27049        31.67502        -0.93281
C         43.98569        30.91064        -1.00130
C         45.28285        32.97139        -0.20086
C         44.01070        33.78509        -0.51097
C         45.26746        35.93061         0.30081
C         43.98908        35.13104         0.21446
C         45.20741        37.37408        -0.19984
C         43.99471        38.13679         0.33006
C         45.23128        40.29122         0.57714
C         43.99555        39.60708         0.19008
C         45.27315        41.79224         0.62613
C         43.99506        42.53531         0.46185
C         45.32236        44.63755        -0.01137
C         44.03135        43.92690        -0.06832
C         45.29834        46.06848         0.10641
C         44.10349        46.78539         0.06216
C         43.85976        48.17445         0.22396
C         47.61888        27.27915        -1.19311
C         46.59080        26.64763        -0.90429
C         47.74683        28.69083        -1.47795
C         46.38595        29.14795        -1.80585
C         47.76269        31.90460        -1.41335
C         46.40523        31.32865        -1.59481
C         47.79339        33.34715        -0.94006
C         46.57209        33.71850        -0.08722
C         47.85136        35.91505         0.07639
C         46.56114        35.19863         0.18868
C         47.85369        37.39190         0.12444
C         46.54073        38.11553        -0.05013
C         47.82828        40.26310         0.28468
C         46.52903        39.52670         0.45082
C         47.79891        41.75101         0.28583
C         46.52298        42.50840         0.29051
C         47.86408        44.54221        -0.50133
C         46.53722        43.85718        -0.02024
C         47.74591        45.89575         0.17794
C         46.67293        46.51982         0.21527
C         50.13325        28.97256        -0.89673
C         48.85453        29.48429        -1.27719
C         50.30568        31.68067        -0.82819
C         48.99168        31.01473        -1.31622
C         50.26889        33.08039        -0.27968
C         49.07469        33.81534        -0.27388
C         50.22121        35.81859         0.76175
C         49.03004        35.18353         0.15806
C         50.21379        37.34890         1.05588
C         49.03679        38.14059         0.63338
C         50.23323        40.29183         1.06463
C         49.06787        39.51614         0.65424
C         50.14668        41.66718         1.17788
C         48.97893        42.55976         0.79674
C         50.44950        44.41752         0.00897
C         49.16758        43.68797        -0.37013
C         51.23394        29.38181        -0.50360
C         52.58017        31.52759         0.23500
C         51.60347        30.79958        -0.57222
C         52.53843        32.77305         0.31933
C         51.46652        33.71019         0.25717
C         52.56249        35.86398         1.11239
C         51.49894        35.06022         0.67663
C         52.50115        37.12618         1.31151
C         51.50505        38.07105         1.20843
C         52.62166        40.32281         0.58512
C         51.56067        39.56254         1.40218
C         52.77894        41.54130         0.38592
C         52.07799        42.72493         0.72250
C         51.57847        43.82919         0.05873
O         36.45184        37.72874        -1.06852
O         47.39462        37.94118        -1.20202
O         49.93101        36.35775         2.09516
O         47.99419        41.01249        -0.96743
O         48.60927        31.64783        -2.57694
O         43.17379        35.20693         1.40467
O         32.28211        41.43064         0.66097
O         35.94149        35.48037         2.30203
O         37.92488        44.25468        -1.32993
O         40.84068        35.76313        -1.46470
O         43.31697        37.75297         1.57558
O         41.23745        46.64617         1.52966
O         31.63247        33.40218         2.15873
O         31.68669        30.79468         1.98257
O         34.44757        42.61515        -2.27413
O         41.34558        38.83249        -1.31584
O         42.30024        27.75720        -1.86914
O         44.52910        42.34728         1.78818
O         37.89113        35.90233        -0.81227
O         37.72973        37.36445         2.50498
O         44.11342        34.09661        -1.87412
O         46.07316        32.93764         1.03851
O         34.46517        28.85457         2.05801
O         39.89390        29.10739         1.79357
O         43.30860        43.98430        -1.35946
O         38.29706        30.85106        -1.12861
O         41.09523        31.36237         1.34090
O         42.81655        41.24700        -1.24648
O         51.20671        42.36080         1.84136
O         46.33541        30.32123        -2.55573
O         36.31352        32.91558         2.04023
O         43.64402        30.28901        -2.27925
O         51.36508        31.43085        -1.82255
O         38.00885        42.21353         1.89916
O         46.00312        35.63302         1.50214
O         31.57276        38.11468         0.95659
O         37.94899        33.38895        -1.35454
O         45.92285        39.66417         1.75457
O         34.33253        31.25927        -0.66222
O         34.39411        40.28919         1.52558
O         47.62822        34.16660        -2.12646
H         48.07505        33.70730        -2.87279
O         42.51368        29.14564         1.44605
H         41.99726        29.59219         2.15791
O         45.01970        26.58789        -2.68390
H         44.13094        26.88393        -2.98000
O         35.95376        44.82725        -2.68258
H         35.68128        44.06076        -3.23057
O         44.92310        37.29123        -1.61032
H         45.76953        37.16527        -2.09804
O         35.40742        38.00071         2.33268
H         35.65619        37.26566         2.94012
O         34.07902        33.75734         2.88706
H         33.22516        34.09802         3.24057
O         51.90301        39.79950         2.75707
H         51.90602        40.77244         2.90773
O         33.86110        34.96521        -0.61197
H         34.74618        34.85101        -1.01840
O         40.67389        41.69549         2.40092
H         39.92925        41.23179         2.85889
O         48.56451        43.25318         1.97387
H         49.36552        43.57466         2.44160
O         32.49276        35.85507         2.63781
H         31.80677        36.50903         2.89053
O         30.36417        42.70196        -0.50056
H         30.50791        42.03715         0.21595
O         41.37354        48.72777        -1.57846
H         42.05455        48.19456        -2.05137
O         42.70908        46.38786        -1.83160
H         43.07331        45.57744        -2.26849
O         40.95003        25.66634        -1.33768
H         41.07399        26.28793        -2.08997
O         47.71875        44.77574        -1.89985
H         46.94336        45.35592        -2.05164
O         49.41946        43.01222        -1.56449
H         48.96634        43.48140        -2.30236
O         37.34727        45.97481         1.97197
H         37.32527        46.86850         2.37408
O         38.98658        39.69669         2.42060
H         38.31926        39.05341         2.77646
