         346
 CSIRO Nanostructure Databank - Neutral Graphene Oxide Data Set
C          1.30889         2.41266        -0.75036
C          1.26781         3.75801        -0.48776
C          2.51923         1.66238        -0.73930
C          2.50276         4.53108        -0.32500
C          1.33894         6.71795         0.07663
C          1.32887         8.05137         0.52444
C          2.48621         5.91481         0.24677
C          2.39946         8.60238         1.20269
C          1.16614        10.82354         1.56275
C          1.23477        12.18279         1.52429
C          2.38019        10.01137         1.60122
C          2.44804        12.88654         1.18051
C          1.26297        15.12549         1.26639
C          1.29265        16.50755         1.23687
C          2.42358        14.34944         0.99110
C          2.48574        17.20681         0.92872
C          2.54522        18.63487         0.90052
C          3.72757         2.25000        -0.38053
C          3.77408         3.71578        -0.18812
C          4.94275         1.51536        -0.24576
C          4.88881         4.23913         0.60240
C          3.61981         6.42956         0.88742
C          3.63798         7.80343         1.54577
C          4.81668         5.60879         1.07549
C          4.93299         8.54546         1.17070
C          3.73128        10.75979         1.29890
C          3.60725        12.15887         0.92560
C          4.92001         9.94753         0.91300
C          4.66438        12.78100         0.04580
C          3.60621        15.02609         0.64990
C          3.65982        16.45370         0.62433
C          4.85132        14.23746         0.45918
C          4.84157        17.15508         0.24332
C          3.70573        19.29320         0.57490
C          4.88998        18.56770         0.21945
C          6.16474         2.13862         0.01172
C          6.20711         3.64509         0.19358
C          7.39177         1.44064        -0.08578
C          7.39359         4.13500         0.99193
C          6.16819         6.37064         1.30470
C          6.13883         7.82862         1.01891
C          7.51061         5.63666         1.30069
C          7.35591         8.47462         0.65419
C          6.07732        10.60192         0.47075
C          5.98444        11.99954        -0.04218
C          7.34040         9.90332         0.41211
C          7.25315        12.74453        -0.35342
C          6.10467        14.95557         0.07708
C          5.99512        16.39951        -0.25457
C          7.29232        14.23210        -0.42353
C          7.26851        17.12988        -0.63151
C          6.11874        19.24917        -0.04927
C          7.30907        18.57754        -0.35155
C          8.63534         2.05657         0.13402
C          8.66791         3.40965         0.75956
C          9.85311         1.39878        -0.11436
C          9.89615         4.21164         0.55468
C          8.60859         6.32168         0.52133
C          8.57324         7.71442         0.45468
C          9.81838         5.56263         0.28473
C          9.86577         8.43536         0.35720
C          8.53636        10.61473         0.17226
C          8.54434        12.06996        -0.02431
C          9.85245         9.97340         0.27132
C          9.81135        12.79479        -0.39358
C          8.45340        14.90179        -0.71318
C          8.52953        16.35698        -0.68581
C          9.63970        14.08336        -1.19101
C          9.72911        17.03395        -0.69435
C          8.57876        19.19896        -0.30177
C          9.77358        18.46725        -0.45414
C         11.10509         2.02318         0.05690
C         11.19132         3.44071         0.60192
C         12.30473         1.33301        -0.14842
C         12.36085         4.18288         0.01278
C         10.96412         6.25450        -0.42394
C         11.07447         7.73117        -0.09224
C         12.27817         5.51291        -0.29961
C         12.23071         8.43994        -0.32644
C         11.06981        10.64786        -0.23245
C         11.06732        12.02525        -0.59111
C         12.25560         9.88982        -0.34398
C         12.25545        12.67812        -0.98409
C         10.96361        14.87935        -1.27715
C         11.02058        16.25167        -0.60140
C         12.27196        14.13451        -1.36325
C         12.27330        17.07516        -1.04162
C         11.02453        19.09728        -0.22135
C         12.26221        18.44895        -0.37673
C         13.56812         1.98950        -0.16800
C         13.58908         3.44437        -0.19738
C         14.77862         1.27763        -0.23881
C         14.77148         4.11760        -0.49095
C         13.48496         6.22026        -0.74469
C         13.47123         7.74026        -0.75217
C         14.77955         5.53510        -0.62732
C         14.76381         8.43011        -0.62363
C         13.49100        10.57449        -0.54433
C         13.48072        11.98098        -0.76914
C         14.74245         9.86884        -0.52360
C         14.71884        12.69872        -0.68476
C         13.62721        14.91881        -1.47233
C         13.58840        16.29702        -0.72597
C         14.80444        14.06901        -1.03729
C         14.80855        17.22502        -0.88061
C         13.45511        19.12236        -0.09207
C         14.74074        18.55396        -0.34969
C         16.02821         1.92403        -0.42158
C         16.02300         3.36554        -0.86722
C         17.24447         1.25580        -0.35725
C         17.27307         4.12241        -0.48505
C         15.98732         6.26170        -0.63459
C         15.95943         7.70158        -0.63638
C         17.22231         5.51379        -0.42426
C         17.25260         8.43529        -0.66359
C         15.94224        10.60788        -0.42066
C         15.92036        12.00575        -0.37843
C         17.28113         9.95969        -0.66684
C         17.09639        12.82208         0.11452
C         16.09124        14.59259        -1.23274
C         16.08837        16.77222        -1.18145
C         17.26806        14.11554        -0.65558
C         17.29639        17.29136        -0.62797
C         15.93830        19.30615        -0.27128
C         17.23089        18.72705        -0.37025
C         18.50424         1.94110        -0.46187
C         18.51361         3.40210        -0.43405
C         19.71079         1.25378        -0.46890
C         19.74550         4.07285        -0.42189
C         18.43967         6.23282        -0.04971
C         18.50765         7.69691        -0.31982
C         19.78994         5.51021        -0.16569
C         19.81812         8.35109         0.11539
C         18.40770        10.56827         0.16680
C         18.41302        12.06781         0.25212
C         19.73773         9.87176         0.20886
C         19.70491        12.80138         0.07496
C         18.44420        14.92196        -0.54235
C         18.43122        16.39269        -0.48341
C         19.67786        14.24738        -0.25331
C         19.62844        16.92896         0.04483
C         18.38236        19.58690        -0.47215
C         19.65491        19.10464        -0.12403
C         20.98614         1.92770        -0.48826
C         20.99441         3.39239        -0.56780
C         22.17627         1.26131        -0.32116
C         22.18066         4.11105        -0.73605
C         21.01400         6.26266        -0.50988
C         20.92989         7.77166        -0.75204
C         22.16603         5.55385        -0.80256
C         22.20372         8.51961        -0.48542
C         20.98528        10.64726        -0.00698
C         20.96650        12.03932        -0.10827
C         22.21039         9.92030        -0.30587
C         22.18110        12.78865        -0.25869
C         20.91307        14.91707        -0.21043
C         20.91125        16.34419        -0.10079
C         22.16349        14.21016        -0.20179
C         22.10790        17.11600        -0.06370
C         20.96382        19.39737        -0.51781
C         22.10758        18.55993        -0.24759
C         23.46312         2.03857        -0.16904
C         23.42989         3.29354        -1.05660
C         24.71056         1.17837        -0.44407
C         24.74245         4.07215        -0.96007
C         23.42878         6.31386        -1.06692
C         23.43343         7.80430        -0.85400
C         24.74268         5.57135        -0.99433
C         24.68198         8.51441        -0.38577
C         23.41921        10.67431        -0.47582
C         23.42261        12.07962        -0.39608
C         24.68702         9.96712        -0.90746
C         24.65076        12.82589        -0.44158
C         23.37744        14.96431        -0.15632
C         23.36682        16.40650        -0.05641
C         24.61220        14.25070        -0.29411
C         24.60397        17.11473         0.06921
C         23.35899        19.19400        -0.34659
C         24.60508        18.57274        -0.08794
C         25.98441         2.00123        -0.31268
C         25.95818         3.38482        -0.47595
C         27.20044         1.33312        -0.04308
C         27.25812         4.16026        -0.51584
C         25.96602         6.30351        -0.55792
C         25.95310         7.77297        -0.70411
C         27.14132         5.65518        -0.26062
C         27.21831         8.55125        -0.49047
C         25.93814        10.69514        -0.45858
C         25.90841        12.12651        -0.39241
C         27.12778        10.01089        -0.24945
C         27.13198        12.82674        -0.25340
C         25.82916        14.97421        -0.20909
C         25.80884        16.33624         0.11231
C         27.10896        14.28494        -0.65139
C         27.08772        16.93038         0.45122
C         25.72996        19.43931        -0.19798
C         27.04289        19.13115         0.25812
C         28.38674         2.06108         0.26109
C         28.35448         3.46000         0.23195
C         29.60415         1.39270         0.66739
C         29.45797         4.20837         0.82998
C         28.32513         6.42032         0.10233
C         28.38297         7.80418         0.00591
C         29.45103         5.73741         0.77088
C         29.52206         8.55482         0.48606
C         28.31350        10.70261         0.16772
C         28.32381        12.14700         0.09491
C         29.45773         9.98097         0.56193
C         29.52842        12.85268         0.42149
C         28.40153        15.03468        -0.34664
C         28.29756        16.44549         0.06105
C         29.62900        14.30876         0.18767
C         29.54980        17.24205         0.20219
C         28.28190        19.57001        -0.13420
C         29.52051        18.77687         0.17824
C         30.74286         2.09459         0.97111
C         30.73712         3.52473         1.05014
C         31.86828         4.28903         1.34449
C         30.73834         6.44411         0.91711
C         30.73042         7.87023         0.79854
C         31.86893         5.69529         1.27852
C         31.93640         8.66421         0.95670
C         30.56079        10.70057         1.30476
C         30.60180        12.19535         1.05368
C         31.88634        10.00658         1.11159
C         31.64377        12.95146         1.61121
C         30.67608        15.08556         0.89739
C         30.69510        16.53643         0.82883
C         31.64615        14.35804         1.58455
C         31.75517        17.29947         1.29199
C         30.62616        19.43848         0.88399
C         31.69598        18.72573         1.34646
O         19.13092        12.54266         1.43108
O          5.40943         5.90100         2.41677
O          3.45759         4.45514        -1.45581
O         18.87358        10.05226         1.43300
O         29.94069        17.99212        -0.99919
O         29.02045         5.03766         1.99012
O         11.53494        14.59975        -2.57669
O         19.11990         5.79320         1.13779
O         13.30971         6.98202        -2.01331
O         16.22940        15.70104        -2.06303
O         29.47827        14.70327        -1.25366
O          6.52634        12.06784        -1.42771
O          5.84367        14.57174         1.48353
O          7.94590         3.33860         2.06967
O         27.06084        18.09309         1.22108
O         10.08309         9.27011         1.54037
O         19.56082        18.06309         0.83178
O          3.29994        10.41413         2.64511
O         18.15038         7.93117        -1.72156
O         26.73510         8.21487        -1.85952
O         25.00440         4.79868        -2.23912
O         23.40502         7.23808        -2.21839
O          6.30476        16.70151        -1.65414
O          9.34042        12.81608         0.98025
O         27.00342        14.27802        -2.11352
H         27.92205        14.18966        -2.45783
O         23.30284         2.85195        -2.43196
H         23.63374         3.59104        -2.99502
O         24.63253         0.57541        -1.73730
H         24.26035         1.25031        -2.35580
O         24.63380         8.53660         1.06403
H         23.77724         8.92792         1.34219
O         11.12748        15.90962         0.80678
H         10.94717        16.71352         1.33705
O         20.64378         7.96198        -2.15905
H         21.47566         7.74720        -2.64604
O          7.98313         5.76880         2.66496
H          7.25903         5.45697         3.25287
O         23.54961         2.52293         1.19901
H         23.29569         1.79572         1.80427
O         13.63599        15.95135         0.67180
H         13.60471        16.77406         1.20296
O         16.01909         3.30503        -2.33806
H         15.97161         4.22708        -2.67040
O         17.62397        10.39361        -2.01887
H         18.05221         9.62039        -2.46417
O         30.23376        10.57014         2.73608
H         30.18629         9.61097         2.93773
O         12.17874        17.33667        -2.44857
H         12.53837        16.55609        -2.93804
O          9.26393        13.63867        -2.51684
H         10.00580        13.86175        -3.12876
O         20.20646         7.93654         1.43927
H         19.62403         8.39622         2.08460
O          6.46571         4.21264        -1.14366
H          5.64741         4.10558        -1.68021
O         27.68218         4.10549        -1.93972
H         26.90140         4.41997        -2.46099
O         16.68906        13.23067         1.45529
H         17.52037        13.30993         1.98343
O         24.67381         9.94084        -2.35293
H         25.45382         9.40733        -2.64063
O         11.48803         3.29992         2.03239
H         10.65416         3.04825         2.48525
O          3.63887         7.64800         2.99523
H          2.80599         7.20160         3.25180
O         10.62319         6.20447        -1.84951
H         11.42922         6.51140        -2.33413
O         13.82885        15.23418        -2.86780
H         13.78738        14.40619        -3.38930
O          4.08968        12.82655        -1.28697
H          4.83393        12.70255        -1.92463
H          0.36562         1.87097        -0.91207
H          0.29674         4.25556        -0.35402
H          2.47952         0.58232        -0.94077
H          0.45955         6.32076        -0.44560
H          0.43940         8.66675         0.32539
H          0.18745        10.32541         1.61778
H          0.29644        12.74955         1.58865
H          0.31939        14.63180         1.53358
H          0.38164        17.07860         1.46756
H          1.63787        19.20547         1.14705
H          4.91894         0.42560        -0.40239
H          3.73464        20.39241         0.56522
H          7.37434         0.38867        -0.41175
H          6.14819        20.34050         0.09108
H          9.82774         0.36745        -0.50047
H          8.63968        20.27437        -0.07640
H         12.27066         0.25189        -0.35621
H         11.01961        20.14716         0.11170
H         14.76113         0.18467        -0.10528
H         13.40106        20.15214         0.29448
H         17.25588         0.16878        -0.17951
H         15.86795        20.38298        -0.05933
H         19.70581         0.15381        -0.42876
H         18.24177        20.60335        -0.86784
H         22.19119         0.16854        -0.18924
H         21.15769        20.33792        -1.05555
H         24.74653         0.34579         0.31028
H         23.36692        20.27490        -0.55566
H         27.21054         0.23535         0.01416
H         25.55457        20.42272        -0.66144
H         29.62003         0.29330         0.66466
H         28.38137        20.38923        -0.86154
H         31.67631         1.55925         1.19930
H         32.81060         3.77383         1.58205
H         32.81653         6.21548         1.47649
H         32.91144         8.15781         0.91189
H         32.81773        10.58306         1.20964
H         32.44905        12.43917         2.15529
H         32.44928        14.88363         2.11941
H         32.65240        16.81162         1.69823
H         30.56533        20.52184         1.06368
H         32.52629        19.25477         1.83631
