         324
 CSIRO Nanostructure Databank - Neutral Graphene Oxide Data Set
C          1.27367         2.29655        -1.29566
C          1.21141         3.47502        -0.51652
C          2.42181         1.63667        -1.72660
C          2.31468         4.20996        -0.02297
C          1.10643         6.39905         0.10892
C          1.10664         7.80681         0.20851
C          2.28176         5.64572         0.21447
C          2.24884         8.52859         0.52130
C          1.09647        10.71939         0.41186
C          1.11652        12.10174         0.29089
C          2.28603         9.97412         0.53098
C          2.32520        12.82410         0.29511
C          1.19351        14.96298        -0.37053
C          1.26485        16.28676        -0.80455
C          2.34490        14.24408         0.01058
C          2.47681        17.00261        -0.79683
C          2.55282        18.21550        -1.59393
C          3.67444         1.84961        -1.07973
C          3.57028         3.56758         0.15735
C          4.95558         1.86518        -1.60452
C          4.80809         4.21861         0.23421
C          3.52271         6.31734         0.51063
C          3.49210         7.77780         0.94088
C          4.73509         5.63651         0.49432
C          4.74064         8.53631         0.52446
C          3.53166        10.69632         0.62389
C          3.55159        12.12112         0.52533
C          4.77041        10.00101         0.67812
C          4.80249        12.81848         0.61210
C          3.59019        14.93696         0.06812
C          3.61396        16.33408        -0.22333
C          4.80196        14.26110         0.42988
C          4.83811        17.00242        -0.01542
C          3.67248        18.88888        -2.01745
C          4.96288        18.67782        -1.40205
C          6.11907         2.37709        -0.91692
C          6.06256         3.50480         0.02034
C          7.33208         1.90459        -1.50773
C          7.25976         4.18309         0.42978
C          5.97934         6.35076         0.85616
C          6.04008         7.80896         0.57806
C          7.26662         5.60860         0.84130
C          7.29567         8.55006         0.80195
C          6.01031        10.67286         0.74404
C          6.01866        12.10840         0.77476
C          7.26012         9.93321         0.81299
C          7.28035        12.81190         1.00083
C          6.02193        14.96758         0.47222
C          6.05340        16.34827         0.15315
C          7.23751        14.30407         0.99766
C          7.30226        17.14394        -0.06941
C          6.21816        18.59123        -1.95780
C          7.38462        18.06220        -1.27625
C          8.59402         1.96558        -0.90033
C          8.51615         3.57549         0.45583
C          9.87548         1.91874        -1.47054
C          9.76756         4.25552         0.47952
C          8.53683         6.38395         0.80913
C          8.53321         7.79571         0.91504
C          9.76356         5.67435         0.79053
C          9.76810         8.49865         1.12853
C          8.56030        10.69517         0.72557
C          8.45647        12.12760         1.21393
C          9.77035         9.91955         1.21336
C          9.77941        12.83107         1.31674
C          8.51583        15.10096         1.01706
C          8.57167        16.51138         0.42409
C          9.80220        14.31492         1.06858
C          9.86200        16.97758        -0.19391
C          8.60608        18.29248        -1.89486
C          9.86104        17.78200        -1.43864
C         11.02215         2.50448        -0.85065
C         10.95970         3.60159         0.09065
C         12.27749         2.17835        -1.44752
C         12.22784         4.18385         0.59674
C         10.97578         6.35271         1.06797
C         10.98444         7.74329         1.28080
C         12.20044         5.54039         1.24919
C         12.22642         8.40963         1.61461
C         10.93577        10.61606         1.62442
C         10.94866        12.01644         1.81273
C         12.15117         9.84419         1.99116
C         12.16885        12.61632         2.26973
C         11.01722        15.15709         1.12244
C         11.10745        16.27073         0.16662
C         12.22259        14.74085         1.67009
C         12.25742        16.23136        -0.81703
C         11.08114        18.10863        -2.01315
C         12.33294        17.55487        -1.55602
C         13.49993         2.76461        -1.09933
C         13.54846         3.70875         0.03519
C         14.67808         2.51618        -1.82092
C         14.78060         4.50310         0.24714
C         13.50443         6.26529         1.51741
C         13.43156         7.73909         1.67365
C         14.79535         5.66066         1.06538
C         14.69089         8.41808         2.05797
C         13.48056        10.60447         2.18114
C         13.43702        12.06507         2.12158
C         14.76185         9.89500         2.02955
C         14.70657        12.87181         2.15212
C         13.46772        14.93627         1.07108
C         13.55388        15.73753        -0.15878
C         14.69969        14.33865         1.66499
C         14.86127        16.43877        -0.46926
C         13.54894        18.13336        -1.83608
C         14.79667        17.66419        -1.28830
C         15.91835         3.09708        -1.45362
C         15.97351         4.05604        -0.35530
C         17.07244         2.81792        -2.20078
C         17.22931         4.54757         0.10639
C         16.01979         6.29850         1.34556
C         15.99944         7.65282         1.97183
C         17.26560         5.66874         1.01956
C         17.23891         8.46547         1.91793
C         15.95931        10.57290         1.99752
C         16.00615        12.07249         2.08080
C         17.21911         9.83592         1.96436
C         17.27271        12.73353         1.62392
C         15.99650        15.00438         1.29314
C         16.06084        16.17770         0.34770
C         17.26488        14.22789         1.50459
C         17.23770        16.89975         0.12290
C         15.95798        18.37715        -1.45408
C         17.22072        18.01253        -0.85964
C         18.34547         3.26039        -1.75767
C         18.39892         3.97219        -0.50253
C         19.54862         2.93155        -2.41350
C         19.66057         4.05465         0.09990
C         18.49402         6.29511         1.46350
C         18.45882         7.62498         2.21348
C         19.71819         5.62355         1.50655
C         19.78580         8.38588         2.11129
C         18.51076        10.62773         2.14062
C         18.44100        12.02890         1.54054
C         19.71064         9.82097         1.65571
C         19.70471        12.66769         1.04102
C         18.51365        14.95059         1.16789
C         18.48591        16.33914         0.62312
C         19.73164        14.14980         0.84967
C         19.71734        16.96308         0.50463
C         18.31133        18.69595        -1.40285
C         19.65695        18.62407        -0.92376
C         20.81692         3.31397        -1.89465
C         20.87515         3.93710        -0.59635
C         22.02896         3.07656        -2.57089
C         22.09960         4.45621        -0.05000
C         21.03035         6.21997         1.46215
C         21.06499         7.65827         1.84596
C         22.13103         5.59826         0.86487
C         22.28029         8.42648         1.50621
C         20.97754        10.49182         1.21440
C         21.01817        11.96238         1.12397
C         22.27467         9.77207         1.30667
C         22.21364        12.59672         0.89340
C         21.03470        14.89206         0.83909
C         20.98907        16.29961         0.33748
C         22.27132        14.07729         0.77703
C         22.08544        16.89192        -0.27615
C         20.85185        18.70772        -1.59289
C         22.08607        18.14199        -1.05399
C         23.26802         3.37916        -1.95710
C         23.30141         4.04233        -0.68065
C         24.48108         3.09081        -2.63721
C         24.60024         4.25786        -0.01774
C         23.43469         6.38152         0.73793
C         23.52567         7.60940         1.64750
C         24.68301         5.51362         0.91728
C         24.78901         8.37831         1.34860
C         23.52150        10.50484         1.11690
C         23.49021        11.89056         0.84041
C         24.76103         9.80979         1.14850
C         24.70625        12.55944         0.49352
C         23.42262        14.65883         0.03378
C         23.33278        16.07932        -0.42850
C         24.72644        13.95956         0.14164
C         24.60411        16.76339        -0.69690
C         23.28861        18.65443        -1.51418
C         24.57461        18.06303        -1.21584
C         25.74725         3.33972        -2.06064
C         25.81702         3.79773        -0.70221
C         26.95808         3.05630        -2.74332
C         27.07953         3.93671        -0.12725
C         25.96215         6.22885         1.19686
C         25.97333         7.67580         1.30971
C         27.15690         5.55898         1.28795
C         27.24929         8.47308         1.52926
C         25.96135        10.48223         0.79733
C         25.92513        11.83134         0.44321
C         27.23607         9.68114         0.55359
C         27.15436        12.42338        -0.21575
C         25.89965        14.62411        -0.18240
C         25.88851        16.13827        -0.22649
C         27.14933        13.93402        -0.24805
C         27.10773        16.73600        -0.86523
C         25.78936        18.72664        -1.52475
C         27.04533        18.07182        -1.38563
C         28.20957         3.36673        -2.18353
C         28.28183         3.94091        -0.87167
C         29.43423         3.06992        -2.87356
C         29.52919         4.45770        -0.34004
C         28.50552         6.16519         1.35630
C         28.55310         7.67746         1.52574
C         29.64929         5.38909         0.75516
C         29.80239         8.48405         1.35391
C         28.49821        10.51406         0.68132
C         28.45500        11.84976         0.31330
C         29.74685         9.86560         0.98671
C         29.66078        12.61623         0.18357
C         28.34293        14.63289        -0.43885
C         28.31883        16.04083        -0.80782
C         29.61908        13.96821        -0.29264
C         29.53216        16.69406        -1.20137
C         28.23715        18.69914        -1.80197
C         29.47991        18.03701        -1.69791
C         30.63099         3.32514        -2.26994
C         30.71512         4.03895        -1.02335
C         31.99287         4.35964        -0.51223
C         30.94707         5.71486         1.17971
C         31.03495         7.95344         1.75858
C         32.10956         5.16314         0.60673
C         32.21175         8.72475         1.77227
C         30.94934        10.63568         0.94698
C         30.90906        12.00826         0.48706
C         32.16764        10.04313         1.35714
C         32.09452        12.75529         0.27402
C         30.82229        14.67177        -0.53647
C         30.78682        16.02933        -1.07904
C         32.05236        14.03708        -0.24011
C         31.94929        16.70524        -1.47771
C         30.68722        18.68151        -2.09162
C         31.89420        18.01656        -1.98326
O          7.73396        14.96173         2.22894
O         20.65050         8.05161         3.23690
O         21.88384        14.74698         2.03121
O         24.51527         4.20034         1.44590
O         12.11706        13.91154         2.78454
O         23.09751        14.92920        -1.37912
O         18.09773        14.84788         2.56667
O         28.67348         6.78265         2.68318
O         27.21344         9.29012        -0.80154
O         10.00885        13.37164        -0.08762
O          4.86011        18.39922        -0.02694
O         10.82148        17.56198         0.78436
O         15.50549        12.63041         3.34651
O         12.77833         5.56112         2.58533
O         14.45328        15.18185        -1.18008
O         12.68022        10.09764         3.32014
O         27.16714         4.16062         1.25871
O         15.33120        15.29339         2.57689
O         31.15330         6.63009         2.22580
O          7.92815        17.57469         1.18141
O          6.54639         5.89816         2.12074
O          3.56443         2.17424         0.29143
O         19.99751         9.91854         0.23557
O         19.70096         4.22217         1.48901
O          8.57215         2.18114         0.49543
O          5.37707         8.09116        -0.71512
O         15.29873         7.79043         3.24229
O         19.74579        18.35339         0.45551
O         19.53214        13.28668        -0.30962
O         13.02085         3.18311         1.30500
O         18.72311        10.81242         3.56174
H         17.92910        11.24315         3.94552
O         23.46683         6.85843        -0.63604
H         24.14015         7.57160        -0.70451
O          3.51804         7.80539         2.40304
H          2.74119         7.30460         2.72917
O         27.15533         9.05608         2.85412
H         27.39803         8.35243         3.49615
O         11.89671        15.23083        -1.80230
H         12.73250        14.95322        -2.24160
O         25.94696        16.53626         1.20836
H         26.12718        17.50066         1.23926
O          8.80275        10.84833        -0.72820
H          9.37196        11.64418        -0.85116
O         27.08061        11.95082        -1.60245
H         27.11860        10.94807        -1.54487
O         23.59451         7.11193         3.00583
H         23.42647         7.85702         3.61945
O         18.26829         7.24541         3.59934
H         19.14900         7.30228         4.04173
H          0.32481         1.99549        -1.76739
H          0.22423         3.96127        -0.48844
H          2.36400         0.98129        -2.60810
H          0.15503         5.89963        -0.11782
H          0.16452         8.32743        -0.01385
H          0.12484        10.20845         0.39371
H          0.16081        12.62875         0.17172
H          0.21799        14.46004        -0.40729
H          0.36060        16.76646        -1.20733
H          1.60282        18.48841        -2.08318
H          5.11660         1.42399        -2.60008
H          3.57817        19.60440        -2.84880
H          7.25722         1.43524        -2.50092
H          6.35738        18.90968        -3.00229
H         10.00688         1.45677        -2.46076
H          8.61537        18.92661        -2.79535
H         12.27363         1.44382        -2.26740
H         11.10927        18.85981        -2.81822
H         14.64679         1.82962        -2.68025
H         13.57805        19.06955        -2.41531
H         16.99906         2.18012        -3.09373
H         15.93764        19.27832        -2.08573
H         19.50800         2.36974        -3.35746
H         18.11962        19.30581        -2.30020
H         22.02059         2.62259        -3.57194
H         20.88235        19.09739        -2.62122
H         24.43016         2.65397        -3.64553
H         23.27496        19.56721        -2.12779
H         26.91393         2.61688        -3.75025
H         25.75856        19.74303        -1.94369
H         29.38909         2.59074        -3.86146
H         28.19880        19.72091        -2.20777
H         31.57234         3.04632        -2.76555
H         32.88842         3.98501        -1.02764
H         33.09231         5.43586         1.01205
H         33.15043         8.27306         2.11793
H         33.09380        10.63190         1.37259
H         33.07584        12.31102         0.48591
H         32.99953        14.56793        -0.40399
H         32.92935        16.21490        -1.40897
H         30.64584        19.70852        -2.48134
H         32.82508        18.51309        -2.29099
