         278
 CSIRO Nanostructure Databank - Neutral Graphene Oxide Data Set
C        -11.20135         0.61047         0.66198
C         -9.97623         1.41615         0.66322
C         -8.75549         0.67156         0.50505
C         -7.52407         1.16102         0.94103
C         -6.30718         0.57033         0.27395
C         -5.01027         1.35906         0.53622
C         -3.80595         0.60170        -0.05098
C         -2.49123         1.28466         0.28205
C         -1.22739         0.52216        -0.23083
C         -0.00740         1.34085         0.22417
C          1.28393         0.59637         0.27378
C          2.58607         1.35253         0.33512
C          3.86616         0.60908         0.02347
C          5.06784         1.45379        -0.34839
C          6.31339         0.76284        -0.82050
C          7.66273         1.50931        -1.02894
C          8.91204         0.76130        -0.50699
C         10.05651         1.51615         0.20134
C         10.25268         0.88120         1.57725
C         -9.97967         2.81719         0.71679
C         -8.84336         3.65660         0.35308
C         -7.79973         3.07194        -0.57209
C         -6.37462         3.58349        -0.27887
C         -5.09634         2.84499         0.03216
C         -3.82161         3.48264        -0.48082
C         -2.46267         2.72711        -0.36858
C         -1.32617         3.55029         0.29463
C          0.04091         2.85612        -0.09675
C          1.24489         3.59037         0.48932
C          2.56201         2.84421         0.43382
C          3.80830         3.59725         0.07910
C          5.13191         2.84751         0.28492
C          6.31573         3.68214        -0.19125
C          7.58491         3.00025        -0.61816
C          8.82975         3.70763        -0.22318
C          9.88386         3.01964         0.25474
C         -8.65144         4.99310         0.62587
C         -7.55677         5.78756        -0.03366
C         -6.40105         5.03964        -0.67643
C         -5.12057         5.75716        -1.04190
C         -3.81643         4.95812        -0.82382
C         -2.54346         5.74462        -0.65506
C         -1.37674         5.06468        -0.01302
C         -0.08560         5.82549         0.10710
C          1.22070         5.09139         0.38736
C          2.49209         5.84247         0.20916
C          3.77686         5.08399         0.12399
C          5.04177         5.81595         0.42558
C          6.36390         5.09922         0.33618
C          7.56684         5.93096         0.06291
C          8.85740         5.22857        -0.35003
C         -7.29921         7.20130         0.34682
C         -6.12531         7.88287         0.06211
C         -5.02701         7.17207        -0.56399
C         -3.84941         7.78151        -0.95351
C         -2.55597         7.13248        -0.78513
C         -1.31571         8.00128        -0.61611
C         -0.03071         7.26711        -0.36188
C          1.30194         7.61393        -0.97377
C          2.49991         7.15246        -0.18350
C          3.75601         7.93069        -0.26500
C          4.98733         7.31025         0.33288
C          6.27718         8.07806         0.32741
C          7.51952         7.29003         0.12135
C         -5.89170         9.20036         0.68832
C         -4.79370        10.01946         0.69537
C         -3.62620         9.85919        -0.16846
C         -2.31005        10.18186        -0.08705
C         -1.33912         9.48693        -1.08086
C          0.01890        10.21633        -1.06368
C          1.19524         9.94760        -0.51494
C          2.41738        10.14417        -0.01224
C          3.70626         9.44668        -0.33416
C          5.00055        10.16402        -0.10540
C          6.18786         9.52965        -0.00280
C        -11.23893        -0.71152         0.36273
C        -10.02652        -1.53333        -0.05707
C         -8.78869        -0.82729         0.45257
C         -7.53270        -1.59517         0.68480
C         -6.15519        -0.92759         0.70467
C         -5.16912        -1.66200        -0.24942
C         -3.81616        -0.88238        -0.28846
C         -2.48930        -1.63707        -0.27622
C         -1.24964        -0.94323         0.32681
C          0.07808        -1.62166        -0.07765
C          1.25472        -0.74618        -0.41253
C          2.51740        -1.43432        -0.80744
C          3.82174        -0.81812        -0.41623
C          5.08042        -1.53637        -0.77608
C          6.31430        -0.72155        -0.54515
C          7.58010        -1.42469        -0.22893
C          8.90537        -0.72449        -0.30466
C         10.07008        -1.37934         0.54887
C         10.22111        -0.44877         1.75734
C        -10.08531        -3.02276         0.42952
C         -8.76892        -3.80070         0.30732
C         -7.52254        -3.10293         0.70914
C         -6.23231        -3.85272         0.72803
C         -5.04928        -3.16682         0.08060
C         -3.76192        -3.89988        -0.10208
C         -2.46554        -3.13098        -0.30381
C         -1.15698        -3.90000         0.01387
C          0.12632        -3.08897        -0.36690
C          1.25223        -3.67040        -1.21693
C          2.59711        -2.88091        -1.32326
C          3.76361        -3.68836        -0.69008
C          5.08586        -2.90143        -0.82228
C          6.35640        -3.67517        -0.65132
C          7.57734        -2.92435        -0.21105
C          8.46803        -3.47574         0.93124
C          9.80791        -2.83287         0.78002
C         -8.68193        -5.07459        -0.17852
C         -7.48453        -5.92404        -0.10593
C         -6.32242        -5.40563         0.77716
C         -4.96485        -6.10999         0.50068
C         -3.64045        -5.30836         0.46519
C         -2.58743        -5.98496        -0.43023
C         -1.27826        -5.23903        -0.69088
C         -0.07958        -5.92984        -1.28595
C          1.24571        -5.16216        -1.44442
C          2.55518        -5.91978        -1.44562
C          3.88636        -5.08747        -1.36649
C          5.00796        -5.87340        -0.65140
C          6.24940        -5.13142        -0.27497
C          7.16746        -5.66156         0.77765
C          8.54071        -5.01898         0.87815
C         -7.48847        -7.23599        -0.49255
C         -6.46116        -8.20627         0.08802
C         -5.06740        -7.54527         0.08144
C         -3.95736        -8.18919        -0.68721
C         -2.69144        -7.40238        -0.88559
C         -1.43095        -8.17172        -1.22680
C         -0.11451        -7.44266        -1.41499
C          1.18467        -8.18416        -1.15298
C          2.50843        -7.41325        -1.19023
C          3.77689        -8.14921        -0.61688
C          4.65613        -7.10099         0.13727
C          5.61377        -7.57005         1.18427
C          6.85990        -6.80149         1.43383
C         -6.39995        -9.64413        -0.40216
C         -5.26208       -10.34725        -0.57253
C         -3.95953        -9.67302        -0.84902
C         -2.62020       -10.29402        -0.67557
C         -1.45888        -9.59274        -0.74781
C         -0.21479       -10.18051        -0.10796
C          1.11393        -9.53315        -0.49105
C          2.28474        -9.97452         0.30499
C          3.46295        -9.30700         0.33389
C          4.55062        -9.78799         1.18207
C          5.57596        -8.99785         1.56393
O         -6.78271        -5.79519         2.03258
O         -4.69162        -7.20699         1.44800
O         -3.92717         3.93078        -1.86529
O          3.77234         4.33963        -1.16514
O          5.49394         7.88398         1.57330
O          1.00330        -4.20695        -2.53266
O          5.36771         2.63385         1.68571
H          4.53461         2.28192         2.09011
O         -0.63672         8.06960         0.69229
O         -1.10914         0.33138        -1.64447
H         -2.00235         0.12804        -2.01447
O         -3.95871         9.11453        -1.31612
O          7.53382        -3.48327        -1.53426
O         -1.04822        -5.23094        -2.10816
O          1.74223        -0.61939        -1.76399
O          0.49671         0.82207         1.48734
O          1.12437         4.38014         1.68663
O          1.31375        -9.41357        -1.92669
O          0.63700        -2.56032         0.90473
O          3.51180        -3.92610         0.70236
H          3.40959        -3.07317         1.17689
O         -8.39239        -1.23222         1.83604
O          2.75269         2.03134         1.63286
O         -3.11426        -6.30700        -1.75145
O         -4.22702        -8.78029        -1.99558
O         -3.22768        -5.19294         1.82587
H         -3.53154        -5.99976         2.30201
O          3.85458         8.64020        -1.53902
O         -0.41044       -10.02908         1.31127
H          0.28772       -10.52815         1.78254
O         -2.42256         1.22469         1.69487
H         -1.67015         1.75532         2.04134
O         -5.16121         5.91182        -2.49528
H         -6.10254         6.07541        -2.73543
O          9.36798        -0.18100        -1.54230
O         -5.78275         3.61747         1.07407
O         -6.78100        -3.37710         1.98558
O         -7.42090         2.04108         1.94277
H         -8.31205         2.23824         2.30400
O         -1.43829         3.45375         1.71581
H         -0.90972         4.19973         2.10289
O         -0.99975         5.76837         1.22758
O          0.34552         2.96318        -1.49758
H         -0.28760         2.38770        -1.99925
O         -6.60997         0.65184        -1.11986
H         -5.89579         0.21180        -1.64499
O         -2.31199        -2.36062        -1.52713
O          7.85874         1.53759        -2.45271
H          7.08503         2.00869        -2.83840
O          6.20095        -6.01352        -1.45913
O          5.33378         1.27027        -1.77050
O          4.32588        -6.85172         1.51116
O          2.69186        -6.88357        -2.52958
O         -1.06382        -4.19429         1.40209
H         -0.91372        -3.35263         1.89126
O         -0.86907        -7.94151        -2.55047
O          6.71062         3.68935        -1.58249
O         -3.87715         0.10064        -1.40381
O          7.80679        -3.12168         2.16150
H          7.42763        -2.21534         2.09426
O          4.30137        -4.85609        -2.70595
H          4.32129        -5.72764        -3.16222
O          3.98517        -0.45868         1.01933
O         -7.50362         5.47911        -1.49920
O         -8.07998         2.56801        -1.63747
O          1.42483         7.83959        -2.16612
O          5.72013         5.31899         1.61886
O          4.55808        -8.62210        -1.64438
O         -4.71757        -3.86960        -1.18330
O         -1.40748        -1.08301         1.73672
H         -0.73225        -0.51794         2.18000
O         -1.79969         9.52788        -2.42722
H         -2.11014        10.43028        -2.64122
O        -10.47730        -3.04292         1.80201
H         -9.75419        -2.61628         2.31896
O         -6.89243        -8.39597         1.45389
H         -6.84498        -7.50406         1.91071
O          6.77696        -0.88894         0.88089
O         -5.62325        -0.98484         2.02283
H         -6.02768        -1.76510         2.48002
O          9.30570        -5.40202        -0.26482
H          8.77725        -5.21518        -1.07377
O         -5.73828        -1.64021        -1.56614
H         -5.22746        -2.28419        -2.11313
O         -9.97627        -1.57910        -1.49951
H         -9.89467        -0.66253        -1.83874
O         -4.79955         1.43086         1.93970
H         -5.38146         2.13220         2.30573
O          2.93880        -2.69660        -2.69684
H          2.44282        -3.36189        -3.23266
O         -2.07535         2.47351        -1.72409
H         -2.53584         3.11085        -2.32513
O          9.96223         5.78133         0.35859
H          9.75421         5.78149         1.31517
O         11.27846         1.30853        -0.55670
H         11.05610         1.39868        -1.50885
O         11.29066        -1.34445        -0.18298
H         11.53448        -0.39753        -0.35382
H         10.38370        -0.88283         2.75508
H         10.43159         1.54751         2.43512
H         10.77171         3.58574         0.57953
H          9.03147         5.44792        -1.44004
H          8.43696         7.85318        -0.11356
H          7.11979        10.11532         0.01673
H          4.98332        11.26013        -0.20715
H          2.48488        10.77469         0.89670
H          0.01427        11.08483        -1.75422
H         -1.89420        10.71972         0.77590
H         -4.80592        10.87588         1.38812
H         -6.71295         9.50936         1.35788
H         -8.06435         7.70045         0.96251
H         -9.35941         5.54110         1.26783
H        -10.93273         3.32443         0.93621
H        -12.14562         1.13187         0.88591
H        -12.21425        -1.22246         0.35286
H        -10.87930        -3.54799        -0.15738
H         -9.59494        -5.55747        -0.56502
H         -8.35804        -7.63758        -1.03888
H         -7.34985       -10.19625        -0.32701
H         -5.31532       -11.43531        -0.73646
H         -2.59502       -11.32015        -0.27498
H         -0.15126       -11.27905        -0.34824
H          2.15628       -10.85970         0.95062
H          4.50051       -10.83040         1.53252
H          6.38761        -9.39092         2.19306
H          7.58310        -7.23285         2.14409
H          9.07095        -5.39305         1.78695
H         10.60083        -3.49453         0.38839
