         640
 CSIRO Nanostructure Databank - Neutral Graphene Oxide Data Set
C         22.96045        27.43281        -0.12508
C         22.94145        28.69366        -0.63059
C         22.92999        31.71077        -1.01840
C         22.93197        33.05155        -0.79420
C         22.93041        35.96245        -0.52827
C         22.92373        37.33958        -0.52570
C         22.89776        40.31027        -0.30827
C         22.96094        41.65504        -0.14625
C         23.01654        44.56418         0.17949
C         23.03723        45.90402         0.50502
C         25.39530        24.68105         0.61763
C         24.20913        25.37119         0.46812
C         25.43633        27.42734        -0.05183
C         24.20208        26.74025         0.10653
C         25.45388        28.80623        -0.45389
C         24.19149        29.40925        -0.90730
C         25.43093        31.68470        -0.83114
C         24.18399        30.96463        -1.11470
C         25.39630        33.11008        -0.74576
C         24.15545        33.80749        -0.71747
C         25.37613        35.96997        -0.71362
C         24.14683        35.23706        -0.64595
C         25.35657        37.40231        -0.74627
C         24.12152        38.07923        -0.67308
C         25.38454        40.31548        -0.86283
C         24.05738        39.55287        -0.79627
C         25.40942        41.72357        -0.42159
C         24.20327        42.39828        -0.20742
C         25.45620        44.44968         0.40359
C         24.21479        43.80556         0.12312
C         25.46531        45.81088         0.79406
C         24.26036        46.54702         0.83393
C         25.49379        48.62138         1.26721
C         24.29078        47.94835         1.13467
C         27.94016        23.18778         0.69430
C         27.88892        24.62999         0.58949
C         26.65243        25.33036         0.44953
C         27.89895        27.43476         0.02084
C         26.66344        26.73136         0.15281
C         27.89691        28.85140        -0.20576
C         26.64955        29.53976        -0.45437
C         27.85188        31.72304        -0.51257
C         26.64458        30.98159        -0.64007
C         27.86083        33.12179        -0.64611
C         26.62587        33.84428        -0.71605
C         27.86169        35.99020        -0.81223
C         26.61722        35.26365        -0.74910
C         27.86202        37.39692        -0.87976
C         26.61319        38.14152        -0.83521
C         27.88281        40.32599        -1.05733
C         26.62688        39.52875        -0.82419
C         27.89632        41.67801        -0.37391
C         26.67547        42.37303        -0.17476
C         27.94749        44.38586         0.50526
C         26.69334        43.72272         0.27735
C         27.98560        45.77319         0.86869
C         26.72363        46.44265         1.33368
C         27.98214        48.64303         1.24401
C         26.73439        47.94817         1.22512
C         28.04123        50.05360         1.44958
C         30.34076        23.28804         1.33168
C         29.09604        22.53097         0.94868
C         30.35688        24.66595         0.71579
C         29.12639        25.34083         0.51023
C         30.36602        27.43581         0.05020
C         29.12733        26.74178         0.19134
C         30.35306        28.85819        -0.14622
C         29.11986        29.55086        -0.21447
C         30.36502        31.71164        -0.60164
C         29.12149        31.04911        -0.07260
C         30.35163        33.11861        -0.80502
C         29.10828        33.84733        -0.71379
C         30.34442        35.96209        -0.94824
C         29.10089        35.25032        -0.81936
C         30.33248        37.35958        -1.01945
C         29.11380        38.11479        -0.94939
C         30.35268        40.24764        -0.67495
C         29.13756        39.52591        -0.86960
C         30.36830        41.57510        -0.25476
C         29.13229        42.30843        -0.07898
C         30.44516        44.33483         0.75718
C         29.15382        43.66693         0.33566
C         30.42726        45.83064         0.60241
C         29.20087        46.50359         0.83815
C         30.44475        48.64377         1.01726
C         29.20567        47.93683         1.03579
C         30.47578        50.04134         1.31831
C         29.24198        50.71948         1.51627
C         32.88586        20.44939         1.37960
C         31.67888        21.15375         1.44532
C         32.83348        23.20237         0.82467
C         31.62750        22.51511         1.15104
C         32.81064        24.59830         0.53151
C         31.59010        25.32489         0.47336
C         32.83603        27.43023        -0.02665
C         31.59371        26.72938         0.13978
C         32.82092        28.85212        -0.28425
C         31.59030        29.56526        -0.31355
C         32.80452        31.62415        -0.93266
C         31.57651        30.97360        -0.60879
C         32.78427        33.03903        -1.47247
C         31.55791        33.82108        -1.07268
C         32.84213        35.93008        -1.16615
C         31.58630        35.22609        -1.08125
C         32.87797        37.34422        -1.17096
C         31.59812        38.07359        -1.24821
C         32.90091        40.21900        -0.73937
C         31.61416        39.56113        -1.00409
C         32.90476        41.56499        -0.38560
C         31.67104        42.17629         0.22286
C         32.85710        44.40078         0.03478
C         31.68364        43.67836         0.21507
C         32.84112        45.83591         0.12576
C         31.64441        46.54048         0.43472
C         32.88141        48.69024         0.69640
C         31.65908        47.96981         0.67078
C         32.93669        50.01825         1.14990
C         31.73784        50.71993         1.44376
C         33.03127        52.78128         1.80883
C         31.82080        52.09604         1.80672
C         35.37594        18.97653         0.77598
C         35.35870        20.36609         0.99427
C         34.09307        21.10499         1.09117
C         35.33498        23.25298         0.81979
C         34.08104        22.50005         0.84837
C         35.32875        24.59488         0.57751
C         34.07634        25.23707         0.02776
C         35.29582        27.44428        -0.03729
C         34.05984        26.74348         0.07336
C         35.29126        28.81943        -0.46035
C         34.04056        29.52387        -0.57338
C         35.24704        31.60044        -1.31901
C         33.99876        30.90942        -0.92778
C         35.28149        33.07966        -1.24922
C         34.07807        33.78274        -1.22425
C         35.31932        35.90475        -1.15141
C         34.08225        35.20427        -1.17512
C         35.33972        37.34403        -1.16283
C         34.09289        38.06319        -1.16838
C         35.32824        40.21311        -0.94900
C         34.11195        39.50784        -1.00057
C         35.33570        41.60984        -0.69913
C         34.11686        42.30608        -0.43426
C         35.32532        44.44287        -0.44680
C         34.11689        43.72463        -0.27602
C         35.35860        45.87400        -0.30439
C         34.07189        46.57767        -0.17973
C         35.41307        48.71097         0.34352
C         34.10433        48.06680         0.15302
C         35.46314        50.05640         0.78642
C         34.27046        50.63955         1.50515
C         35.49230        52.85935         1.46789
C         34.25508        52.14495         1.54543
C         35.56589        54.24085         1.79080
C         37.80061        18.97777         0.62184
C         36.57665        18.28538         0.64253
C         37.77573        20.38796         0.76824
C         36.57747        21.08123         1.02049
C         37.87361        23.31929         1.49041
C         36.50143        22.53942         1.49683
C         37.80905        24.75169         0.97087
C         36.48826        25.47519         0.99256
C         37.74401        27.47616         0.08243
C         36.52048        26.79954         0.26653
C         37.75275        28.82016        -0.41323
C         36.52370        29.46645        -0.68889
C         37.79141        31.61655        -1.08996
C         36.53970        30.84991        -1.19424
C         37.77373        33.03094        -1.17894
C         36.53333        33.76128        -1.20056
C         37.79760        35.88380        -1.04477
C         36.54834        35.18239        -1.14625
C         37.80434        37.33403        -1.05304
C         36.56765        38.03250        -1.16318
C         37.84993        40.19428        -1.02114
C         36.57604        39.51810        -1.43432
C         37.83316        41.59472        -0.49041
C         36.55907        42.35219        -0.72126
C         37.79289        44.51002        -1.07243
C         36.55150        43.73635        -0.68214
C         37.82481        45.92766        -0.54722
C         36.56935        46.59558        -0.29527
C         37.84325        48.70821         0.03837
C         36.59452        48.01130         0.00466
C         37.85999        50.11874         0.27764
C         36.65248        50.78909         0.68152
C         37.86909        52.95002         0.84450
C         36.68626        52.20586         1.01762
C         37.92334        54.32501         1.17986
C         36.74748        54.94133         1.68112
C         40.36557        16.16257         0.45425
C         39.16806        16.83653         0.60177
C         40.28070        18.99423         0.51904
C         39.09979        18.27969         0.57010
C         40.32276        20.46516         0.19166
C         38.99501        21.17119         0.45770
C         40.31173        23.33850         0.80200
C         39.00504        22.62585         0.74773
C         40.27936        24.75240         0.81712
C         38.98506        25.43469         0.76703
C         40.18462        27.58246         0.38669
C         38.99029        26.84858         0.41909
C         40.19086        28.91483        -0.09902
C         39.00111        29.51496        -0.54378
C         40.22874        31.62082        -1.08038
C         39.00078        30.92271        -0.92902
C         40.24612        33.01609        -1.12993
C         39.00828        33.73710        -1.11273
C         40.27287        35.84185        -0.74800
C         38.99851        35.15684        -1.00953
C         40.27972        37.35860        -0.73203
C         39.02052        38.05197        -1.00625
C         40.31108        40.19883        -0.85187
C         39.03824        39.49086        -0.98194
C         40.31272        41.62675        -0.82025
C         39.09123        42.35908        -0.78392
C         40.30924        44.46614        -0.89433
C         39.08657        43.75241        -0.86149
C         40.28040        45.96492        -1.08751
C         39.02427        46.61780        -0.54164
C         40.29321        48.73539        -0.22728
C         39.06042        48.02541        -0.24086
C         40.29930        50.14512        -0.01664
C         39.07956        50.82930         0.18882
C         40.36717        52.99016         0.41409
C         39.04028        52.33185         0.12594
C         40.37340        54.39583         0.74454
C         39.17156        55.06494         1.07501
C         40.41161        57.13711         1.46378
C         39.22111        56.45804         1.39097
C         42.84121        16.21960         0.26788
C         41.60366        16.85340         0.44335
C         42.82136        19.08198         0.48158
C         41.58187        18.30003         0.85187
C         42.77625        20.45039         0.55328
C         41.49506        21.13704         0.97340
C         42.74057        23.35517         0.75642
C         41.51689        22.63544         0.77609
C         42.70449        24.77043         0.86005
C         41.48710        25.47813         0.86616
C         42.70727        27.65756         0.49138
C         41.44038        26.99424         0.99986
C         42.72372        28.92447        -0.01589
C         41.46190        29.75452        -0.05517
C         42.78435        31.53327        -1.46450
C         41.45229        30.74942        -1.23402
C         42.72521        33.03053        -1.23521
C         41.51705        33.73476        -1.15750
C         42.74784        35.88173        -1.10400
C         41.53729        35.14846        -1.02491
C         42.75267        37.34066        -1.04941
C         41.55999        38.05964        -0.94065
C         42.77459        40.21411        -1.00673
C         41.53673        39.49572        -0.93212
C         42.76340        41.62192        -0.98257
C         41.54854        42.33989        -0.89324
C         42.78331        44.50671        -0.80247
C         41.53379        43.77868        -0.89169
C         42.77089        45.92369        -0.60063
C         41.55213        46.64777        -0.63867
C         42.78012        48.73895        -0.20137
C         41.54548        48.03028        -0.37476
C         42.77682        50.16374        -0.06071
C         41.55350        50.86802        -0.00567
C         42.82631        53.05754        -0.06335
C         41.54528        52.29641         0.18603
C         42.85254        54.43062         0.55505
C         41.62583        55.09575         0.83093
C         42.88885        57.13331         1.35090
C         41.64628        56.46412         1.22227
C         44.03865        16.93608         0.27104
C         45.30152        19.06906         0.30695
C         44.07516        18.35741         0.32646
C         45.29914        20.51082         0.05061
C         43.95298        21.25744         0.20726
C         45.23358        23.36403         0.58667
C         43.99862        22.67788         0.56282
C         45.25562        24.76904         0.79409
C         43.98786        25.47902         1.00432
C         45.24438        27.63979         0.46789
C         43.97661        26.98418         0.80613
C         45.21932        28.96890         0.05780
C         43.98034        29.62413        -0.25519
C         45.22677        31.64327        -0.95608
C         43.98564        30.92500        -0.76405
C         45.18527        33.00941        -1.32692
C         43.95525        33.74061        -1.29512
C         45.22505        35.89076        -1.28753
C         43.96236        35.17294        -1.27380
C         45.23160        37.34033        -1.19891
C         44.00837        38.05390        -1.13319
C         45.25263        40.18821        -1.09768
C         44.01612        39.48320        -1.10857
C         45.27795        41.61240        -0.94364
C         44.02853        42.38235        -1.26905
C         45.20503        44.46242        -0.45249
C         44.00664        43.80410        -0.76824
C         45.22528        45.86552        -0.25846
C         44.00518        46.60605        -0.35334
C         45.25597        48.70402         0.01379
C         44.00981        48.01908        -0.18623
C         45.27116        50.11748         0.13819
C         44.04290        50.86542         0.08469
C         45.31210        52.95922         0.34870
C         44.07680        52.25908         0.18771
C         45.33146        54.37617         0.50599
C         44.07459        55.10277         0.70480
C         44.07179        56.46351         1.11888
C         47.73581        19.15073         0.61803
C         46.56142        18.46919         0.67120
C         47.81987        20.53911         0.01611
C         46.53528        21.28925         0.24369
C         47.74448        23.39102         0.64403
C         46.50309        22.65329         0.45601
C         47.73051        24.78345         0.75419
C         46.47283        25.49975         0.75614
C         47.72184        27.60453         0.42550
C         46.47079        26.91440         0.61351
C         47.74299        28.95304         0.03635
C         46.48784        29.76917         0.12317
C         47.70787        31.64083        -1.01915
C         46.46829        30.99929        -0.72751
C         47.71435        33.01553        -1.35326
C         46.43777        33.72977        -1.71173
C         47.69041        35.89331        -1.15123
C         46.41509        35.18915        -1.34337
C         47.71130        37.35534        -1.23828
C         46.47547        38.04826        -1.21355
C         47.72170        40.17016        -1.02441
C         46.48783        39.47692        -1.12094
C         47.71658        41.58024        -0.72633
C         46.45821        42.26667        -0.64674
C         47.71687        44.40892        -0.16470
C         46.41971        43.65642        -0.06905
C         47.71081        45.81515         0.02260
C         46.47006        46.54696        -0.01896
C         47.72602        48.65314         0.23943
C         46.47973        47.96152         0.08266
C         47.74323        50.07241         0.30024
C         46.51664        50.80702         0.26736
C         47.79027        52.92114         0.45301
C         46.54042        52.22743         0.35620
C         47.77001        54.33534         0.50606
C         46.57325        55.03645         0.54725
C         50.31558        20.63117         0.35695
C         49.04985        21.31140         0.42166
C         50.22012        23.40663         1.01818
C         49.00255        22.67761         0.69522
C         50.20350        24.78678         1.11649
C         48.97325        25.52278         0.85851
C         50.15486        27.79858         0.86488
C         48.95589        26.90165         0.65931
C         50.18225        28.93274        -0.12544
C         48.97874        29.59038        -0.35179
C         50.15517        31.61333        -1.19869
C         48.95144        30.94545        -0.87877
C         50.15520        32.99698        -1.46585
C         48.93534        33.69126        -1.46449
C         50.24747        35.89274        -1.51751
C         48.98896        35.15534        -1.28978
C         50.20696        37.30747        -1.33378
C         48.95578        38.02139        -1.20880
C         50.19065        40.13117        -0.94953
C         48.96090        39.45165        -1.09138
C         50.21619        41.63728        -0.96909
C         48.92062        42.28640        -0.55794
C         50.17420        44.37079        -0.04005
C         48.92712        43.69076        -0.26236
C         50.18609        45.76007         0.26332
C         48.94520        46.50467         0.22935
C         50.18576        48.62547         0.52460
C         48.94663        47.91986         0.35877
C         50.21753        50.00890         0.45507
C         48.99409        50.76590         0.38349
C         50.28498        52.84140         0.70753
C         49.01668        52.17825         0.48035
C         51.46384        21.22997         0.74502
C         52.75781        23.36664         1.08404
C         51.47305        22.60414         1.35809
C         52.77975        24.80258         1.55405
C         51.45685        25.56071         1.37205
C         52.73426        27.65684         0.55827
C         51.46995        27.03895         1.03782
C         52.73944        28.91610        -0.09589
C         51.45654        29.48878        -0.58474
C         52.68465        31.68834        -1.24833
C         51.43693        30.88502        -1.17433
C         52.64518        32.97128        -1.69687
C         51.36332        33.69855        -2.04494
C         52.69011        35.92777        -1.87584
C         51.44770        35.20861        -1.76685
C         52.67481        37.34812        -1.56182
C         51.43905        38.01093        -1.27862
C         52.61087        40.09407        -0.56885
C         51.41112        39.42245        -0.96213
C         52.59116        41.47433        -0.15009
C         51.41981        42.23640        -0.29698
C         52.60196        44.26577         0.40445
C         51.39699        43.62176         0.01732
C         52.62439        45.68146         0.65622
C         51.40859        46.40443         0.58523
C         52.71416        48.53060         0.80896
C         51.38962        47.84571         1.01759
C         52.73565        50.03794         0.94728
C         51.53659        50.72862         0.27244
C         51.45922        52.17750         0.66881
C         55.19678        23.47209         0.95444
C         53.96265        22.75415         0.86955
C         55.22469        24.85422         1.06534
C         53.99739        25.57642         1.09859
C         55.19415        27.65092         0.49042
C         53.95540        26.94410         0.73042
C         55.18174        28.99783        -0.00556
C         53.94421        29.59195        -0.38939
C         55.21603        31.53356        -1.48622
C         53.97478        31.07782        -0.71651
C         55.17076        32.93715        -1.93080
C         53.86627        33.64478        -2.24306
C         55.11244        35.71151        -2.59898
C         53.90380        35.16775        -2.14586
C         55.11228        37.84007        -1.92446
C         53.86997        38.14818        -1.35882
C         55.03214        39.96363        -0.07438
C         53.83644        39.39745        -0.62595
C         54.98678        41.28935         0.50953
C         53.79103        42.07732         0.35492
C         54.95952        44.15523         1.05258
C         53.78495        43.49231         0.58368
C         55.08955        45.60608         1.05810
C         53.87356        46.35606         0.90179
C         55.18303        48.52598         0.88417
C         53.88264        47.80228         0.87591
C         55.15068        49.91732         0.36759
C         54.01747        50.62583         0.41028
C         57.55014        25.19732         2.04781
C         56.55512        25.56960         0.96999
C         57.54394        27.88317         1.08034
C         56.41007        27.06258         0.86014
C         57.54839        29.22958         0.59807
C         56.41245        29.70934        -0.09680
C         57.81448        31.63745        -0.86551
C         56.54591        30.87579        -0.98869
C         58.08506        32.74430        -1.68089
C         56.26087        33.56319        -2.49199
C         57.63730        35.62070        -2.52489
C         56.35613        34.98726        -2.62270
C         57.59585        37.79287        -1.76906
C         56.32951        38.31798        -1.38446
C         57.46653        39.46182         0.40967
C         56.25605        39.24516        -0.29139
C         57.41977        41.34843         1.32316
C         56.11293        41.94309         1.10603
C         57.82890        44.22866         1.29595
C         55.98188        43.29927         1.47966
C         57.61460        45.53279         0.79997
C         56.36644        46.23961         0.97905
C         57.67685        48.29649         0.26957
C         56.46136        47.71493         0.87196
C         58.55958        26.03464         2.37582
C         59.74058        28.22494         2.07138
C         58.65477        27.37789         1.82147
C         59.77288        29.53015         1.55839
C         58.70915        30.04983         0.80533
C         59.77304        32.31120         0.41719
C         58.75622        31.35546         0.16431
C         59.82619        33.53048        -0.25094
C         58.95918        33.79905        -1.34196
C         59.97638        36.01261        -1.76602
C         58.83758        35.12558        -1.95748
C         59.98319        37.33950        -1.42328
C         58.79347        38.10658        -1.11830
C         59.88642        39.76413         0.49298
C         58.74293        39.08339        -0.04974
C         59.84976        41.05848         0.97505
C         58.69005        41.91005         1.10252
C         59.82532        43.91884         0.00976
C         58.82215        43.34585         0.82488
C         59.79709        45.28365        -0.28506
C         58.70808        46.10320         0.07867
C         58.69087        47.52297        -0.18791
O         24.58035        40.05993        -2.06816
O         57.39359        39.99574         1.71036
O         55.14862        37.03221        -3.05958
O         48.43450        35.43598         0.06543
O         55.94358        30.59686        -2.30253
O         57.38856        32.83818        -2.88680
O         57.66635        36.97913        -2.92085
O         44.51607        20.94288        -1.11268
O         56.98177        43.79910         2.33174
O         55.97827        48.40131         2.10879
O         31.55815        39.01530        -2.37966
O         40.26362        36.58076         0.52885
O         33.89535        47.60768        -1.22957
O         36.04253        22.49283         2.84042
O         35.87991        31.02518        -2.51976
O         51.48290        29.71029        -2.05719
O         51.44845        26.56830         2.44913
O         38.68511        22.16758        -0.61207
O         43.99847        26.39797         2.16820
O         24.25828        30.02431        -2.23313
O         54.16233        31.72370         0.59693
H         53.41384        31.46743         1.17684
O         37.70826        44.66612        -2.54447
H         36.86206        45.12352        -2.74191
O         34.08063        24.91864        -1.42502
H         33.27701        25.32326        -1.81702
O         30.50871        44.12239         2.22845
H         30.72641        43.16327         2.35381
O         38.30336        23.42177         2.86273
H         37.52184        23.07597         3.39106
O         29.16805        31.27791         1.39863
H         29.98714        30.85034         1.72979
O         44.07031        42.51016        -2.74325
H         43.25317        42.97888        -3.01882
O         46.49849        30.30614         1.51959
H         46.71120        29.55627         2.11702
O         47.93732        20.34359        -1.43928
H         47.06223        20.04099        -1.76557
O         32.68655        32.89628        -2.93603
H         33.46903        32.38281        -3.23316
O         34.48594        50.23120         2.92107
H         33.76613        50.64037         3.44821
O         38.79416        52.63798        -1.30763
H         39.47256        52.15394        -1.82627
O         57.15081        25.12114        -0.29666
H         57.98646        25.61944        -0.42094
O         41.38460        27.31447         2.42468
H         42.21027        26.94230         2.82010
O         42.81945        53.29632        -1.52879
H         42.05960        53.88766        -1.71919
O         27.85183        40.65762        -2.50289
H         27.83556        39.81144        -2.99948
O         43.12039        31.42458        -2.88367
H         42.82099        30.52707        -3.16624
O         30.23819        23.51282         2.79099
H         29.42116        24.03336         2.94583
O         41.44054        30.52975         1.16693
H         41.39778        29.89980         1.91895
O         41.27851        20.94984         2.39042
H         41.42719        19.99220         2.60643
O         51.20924        47.83169         2.48715
H         51.42420        48.74383         2.79915
O         52.63407        50.32578         2.37567
H         53.46179        50.01145         2.79993
O         52.95134        24.66154         3.02262
H         52.68605        25.53255         3.40507
O         36.22510        25.79161         2.40418
H         36.27420        24.93916         2.89680
O         40.63101        20.57569        -1.21703
H         40.03413        21.27391        -1.57982
O         49.89901        28.49195         2.13745
H         50.13544        27.85251         2.84991
O         53.76435        33.39999        -3.69935
H         52.85249        33.67625        -3.97673
O         31.75038        41.77238         1.66681
H         32.65356        42.00117         1.97816
O         26.67195        46.18239         2.80458
H         25.84857        46.60213         3.13534
O         40.19956        46.16195        -2.54402
H         39.38656        45.68136        -2.84111
O         51.82616        50.67801        -1.16070
H         51.08467        51.11587        -1.62943
O         41.22468        29.91107        -2.40537
H         40.63143        30.38906        -3.02195
O         50.36882        41.99282        -2.40747
H         49.59364        41.62019        -2.88024
O         46.24612        43.41761         1.38735
H         46.33249        44.28541         1.83749
O         41.60358        18.24241         2.35130
H         40.83999        17.68845         2.62576
O         46.44510        33.72727        -3.20867
H         45.51029        33.76807        -3.50691
O         51.14752        33.60237        -3.50301
H         50.92427        32.66860        -3.70908
O         37.83694        41.42123         0.98995
H         38.64474        40.91280         1.22106
O         36.53199        39.64022        -2.91382
H         35.70493        39.20585        -3.21563
O         51.44479        22.39851         2.81060
H         51.91044        23.17299         3.21951
H         22.01858        26.89361         0.05347
H         21.98622        29.16810        -0.89321
H         21.97972        31.18300        -1.17564
H         21.96761        33.57390        -0.74467
H         21.97288        35.43312        -0.44532
H         21.96218        37.86500        -0.45581
H         21.96061        39.78424        -0.07899
H         22.05464        42.18082         0.18360
H         22.05575        44.09480        -0.06941
H         22.10496        46.48656         0.51754
H         25.36197        23.61665         0.88559
H         23.25003        24.85178         0.60739
H         25.46635        49.71617         1.35769
H         23.34414        48.50637         1.15782
H         27.02429        22.60939         0.50663
H         27.11633        50.62386         1.60577
H         29.09514        21.43291         0.99666
H         29.23334        51.79865         1.71763
H         32.88367        19.37548         1.61169
H         30.76815        20.61576         1.74169
H         33.00297        53.86577         1.98337
H         30.90608        52.66171         2.02477
H         34.43291        18.41486         0.72086
H         34.67731        54.76654         2.16414
H         36.54752        17.19538         0.51239
H         36.75558        55.99848         1.97568
H         40.36330        15.06952         0.32707
H         38.23769        16.25405         0.62813
H         40.42677        58.20573         1.72181
H         38.29184        57.00670         1.59146
H         42.86746        15.12968         0.11759
H         42.90075        58.18977         1.65508
H         44.98050        16.38502         0.14077
H         45.02026        56.99968         1.25436
H         48.66487        18.64793         0.92361
H         46.55982        17.43382         1.04403
H         48.70905        54.90315         0.53134
H         46.61407        56.13180         0.61364
H         50.33827        19.60371        -0.03386
H         50.28907        53.91120         0.95802
H         52.40186        20.65914         0.71521
H         52.39510        52.71748         0.87219
H         56.13947        22.91660         0.85705
H         54.01933        21.67897         0.64989
H         56.07662        50.38191         0.00033
H         54.00760        51.66376         0.04679
H         57.50407        24.18571         2.47849
H         57.74053        49.38849         0.17042
H         59.32990        25.72003         3.09671
H         60.58825        27.85832         2.66821
H         60.66145        30.14850         1.74692
H         60.49781        32.12173         1.22099
H         60.55408        34.28890         0.07012
H         60.95932        35.51210        -1.76987
H         60.95790        37.79393        -1.18720
H         60.87982        39.32259         0.32028
H         60.82464        41.54601         1.13785
H         60.64400        43.29426        -0.37386
H         60.62209        45.72814        -0.85994
H         59.56217        47.97873        -0.68040
