         232
 CSIRO Nanostructure Databank - Neutral Graphene Oxide Data Set
C        -10.93382         0.70297         0.35097
C         -9.79851         1.44730        -0.18859
C         -8.56169         0.71345        -0.43016
C         -7.35125         1.39850        -0.63331
C         -6.10661         0.70178        -0.62337
C         -4.85092         1.39948        -0.55702
C         -3.64406         0.66632        -0.49581
C         -2.38106         1.41112        -0.28332
C         -1.14343         0.64674         0.00615
C          0.06852         1.34150         0.33546
C          1.27541         0.66545         0.42243
C          2.52171         1.37838         0.92697
C          3.78099         0.72032         0.43633
C          4.96038         1.45257         0.22071
C          6.17063         0.80242        -0.14873
C          7.31962         1.51437        -0.79177
C          8.63472         0.78991        -0.56138
C          9.84858         1.54944        -0.48822
C         11.09228         0.81202        -0.30993
C         -9.85526         2.80513        -0.33705
C         -8.70417         3.56719        -0.82987
C         -7.38042         2.83898        -0.94695
C         -6.08214         3.64809        -0.87501
C         -4.88272         2.84696        -0.34338
C         -3.80670         3.49037         0.23097
C         -2.47002         2.84593         0.18519
C         -1.27573         3.46154         0.87443
C          0.03200         2.75598         0.80023
C          1.29549         3.55037         0.77301
C          2.49663         2.87753         0.70231
C          3.75670         3.59365         0.60603
C          4.95012         2.90287         0.39551
C          6.25601         3.60376         0.33714
C          7.43472         2.93878        -0.30668
C          8.59990         3.71446        -0.90388
C          9.86257         2.93580        -0.60758
C         -8.71721         5.03861        -0.73254
C         -7.54025         5.74008        -0.49129
C         -6.36999         4.89292         0.00458
C         -5.09272         5.70363         0.26837
C         -3.83905         4.94118         0.55500
C         -2.54180         5.67815         0.79337
C         -1.24941         4.95539         1.02403
C          0.04218         5.69325         0.93624
C          1.24816         5.00969         0.82642
C          2.52022         5.71855         0.84378
C          3.71854         5.04117         0.73443
C          4.99831         5.80732         0.75188
C          6.29202         5.09178         0.50410
C          7.47102         5.83371        -0.04230
C          8.61690         5.15356        -0.47928
C         -7.49692         7.14358        -0.51776
C         -6.21696         7.85205        -0.62259
C         -4.96564         7.08499        -0.31120
C         -3.67363         7.83429        -0.11680
C         -2.47059         7.12454         0.40836
C         -1.32434         7.90906         0.97509
C         -0.02122         7.16879         1.15285
C          1.25010         8.00769         1.09351
C          2.55192         7.20122         1.10447
C          3.75142         7.90796         0.52870
C          4.93585         7.26042         0.46672
C          6.23678         8.03496         0.34906
C          7.40200         7.22312        -0.13698
C         -6.13134         9.32865        -0.59806
C         -4.97541         9.98703        -0.35224
C         -3.70911         9.32046        -0.05805
C         -2.58289        10.01783         0.23512
C         -1.27897         9.42581         0.72149
C         -0.09121         9.74731        -0.15456
C          1.15704         9.18759         0.14371
C          2.33766         9.74438        -0.35238
C          3.66158         9.40230         0.27595
C          4.84249         9.89545        -0.52286
C          6.03202         9.28934        -0.46477
C        -10.96445        -0.64066         0.36249
C         -9.89131        -1.45969        -0.31533
C         -8.56904        -0.71136        -0.38817
C         -7.37648        -1.40943        -0.53478
C         -6.11845        -0.72216        -0.57496
C         -4.87364        -1.42418        -0.53503
C         -3.63891        -0.76687        -0.55486
C         -2.35108        -1.56757        -0.45637
C         -1.14247        -0.73346        -0.13920
C          0.08861        -1.44135        -0.06279
C          1.30202        -0.74264         0.18288
C          2.51490        -1.46927         0.18953
C          3.81456        -0.78043         0.53260
C          4.92506        -1.40865        -0.27308
C          6.18978        -0.63841        -0.43277
C          7.46694        -1.35973        -0.45462
C          8.65546        -0.62676        -0.42310
C          9.92324        -1.34405        -0.28440
C         11.12772        -0.54694        -0.23463
C         -9.76454        -2.84999         0.25436
C         -8.43316        -3.52508         0.31488
C         -7.49770        -2.89751        -0.75724
C         -6.15421        -3.62364        -0.78780
C         -4.92811        -2.88677        -0.32133
C         -3.69156        -3.63722         0.06407
C         -2.37258        -2.90958         0.34488
C         -1.27543        -3.44154        -0.60065
C          0.08086        -2.84483        -0.30674
C          1.29377        -3.52715        -0.35294
C          2.51638        -2.83967        -0.08147
C          3.78680        -3.56492        -0.17695
C          4.96985        -2.88196        -0.28912
C          6.26884        -3.54806        -0.67440
C          7.44419        -2.81063        -0.03384
C          8.75700        -3.53191        -0.23188
C          9.95259        -2.72941        -0.23670
C         -8.49077        -5.04297         0.22296
C         -7.40909        -5.79510        -0.14031
C         -6.17520        -5.09413        -0.59230
C         -4.87463        -5.81487        -0.47683
C         -3.63254        -5.08114        -0.25411
C         -2.44044        -5.74865        -0.41317
C         -1.27294        -4.97236        -0.99727
C          0.06347        -5.73870        -0.79280
C          1.34986        -4.98103        -0.62732
C          2.58734        -5.71403        -0.27604
C          3.79366        -5.00746        -0.20876
C          5.06898        -5.68364        -0.21463
C          6.27177        -5.01812        -0.34992
C          7.54304        -5.71018        -0.23782
C          8.76265        -4.90853        -0.24987
C         -7.33178        -7.23184         0.10285
C         -6.15425        -7.94866         0.09830
C         -4.87666        -7.30737        -0.28868
C         -3.57906        -7.91637         0.01088
C         -2.40661        -7.19232        -0.26344
C         -1.13571        -7.86651        -0.15806
C          0.06818        -7.17107        -0.35662
C          1.31460        -7.83270        -0.09730
C          2.53380        -7.12394        -0.11488
C          3.79049        -7.80433         0.24144
C          5.05326        -7.15202        -0.21672
C          6.36048        -7.90158        -0.16308
C          7.57907        -7.08424        -0.05968
C         -6.04592        -9.32750         0.52214
C         -4.83785        -9.95601         0.64010
C         -3.56600        -9.29994         0.38610
C         -2.34868        -9.96109         0.45613
C         -1.12072        -9.27385         0.18924
C          0.09508        -9.95480         0.26661
C          1.33935        -9.26827         0.16875
C          2.53620        -9.97772         0.32250
C          3.81386        -9.29600         0.47989
C          5.13124        -9.98726         0.41847
C          6.29786        -9.33361         0.24020
O         -0.75540         2.80283         2.06917
O          7.04313         1.52762        -2.24027
H          6.76504         0.62017        -2.49844
O         -7.79506        -3.21228         1.59982
H         -8.42107        -3.45391         2.31409
O          2.63131         7.45639         2.59745
O         -5.70443         4.04894        -2.19692
H         -6.50238         3.95346        -2.76891
O          4.10937        -1.08888         1.93140
H          3.56521        -0.47371         2.47940
O          3.69330        10.10844         1.54994
H          3.00313         9.71053         2.13274
O          5.62185        -7.71092        -1.44595
O          2.50306         1.18888         2.39441
H          1.69985         1.63634         2.74185
O         -5.39017         7.18392        -1.69595
O         -1.90037        -2.47400        -1.63061
O         -6.84661         4.33702         1.25426
H         -6.19936         4.59636         1.95688
O          1.55234         8.46872         2.48204
O         -8.12983        -3.07598        -2.04319
H         -7.61161        -3.77571        -2.52036
O          5.22141        -0.85980        -1.59063
O         -6.10984        -4.47708        -1.95985
O         -4.67625        -3.28772         1.09910
O         -8.15788         3.11368        -2.15959
O         -4.70776         5.49285         1.65246
O          8.45760         3.78339        -2.35872
H          8.08009         2.92348        -2.67083
O         -2.08880         5.39802         2.14607
O         -0.88214         7.54712         2.29586
O         -2.08970        -2.88949         1.72642
H         -2.95042        -2.85105         2.20084
O          6.60072         8.41045         1.71460
H          6.54860         7.58745         2.25314
O        -10.38043        -1.67787        -1.67695
H         -9.67693        -2.19830        -2.14435
O         -1.55743        -5.02376        -2.40822
H         -0.69762        -4.93934        -2.88123
O         -1.01830        10.08610         1.98931
H         -0.62953         9.40571         2.59326
O         -2.13033         2.51454        -1.21821
O          0.91061        -5.44585        -1.96490
O          7.17742        -2.79966         1.40007
H          7.91773        -2.33768         1.84666
O         -2.61670         7.33194        -1.02859
O          6.44281        -3.41570        -2.11211
H          5.69430        -3.86790        -2.55461
O          5.91554         5.49993         1.86663
O          7.33927         2.97698         1.13772
O         -4.82297        -6.73161        -1.63302
O          3.80840        -8.30913         1.61143
H         12.09099        -1.06650        -0.12159
H         12.02752         1.38886        -0.25778
H         10.82246         3.47220        -0.55819
H          9.46750         5.75923        -0.83071
H          8.28874         7.77015        -0.49317
H          6.89454         9.69366        -1.01698
H          4.71274        10.81674        -1.11159
H          2.26723        10.63156        -1.00095
H         -0.12753        10.63411        -0.80510
H         -2.62596        11.11807         0.24410
H         -4.97153        11.08733        -0.34001
H         -7.05696         9.89615        -0.77546
H         -8.42406         7.70229        -0.71909
H         -9.64977         5.57562        -0.96458
H        -10.75940         3.35606        -0.03748
H        -11.77030         1.28460         0.76836
H        -11.83578        -1.17418         0.77062
H        -10.66776        -3.47958         0.18371
H         -9.38702        -5.54720         0.62061
H         -8.25667        -7.73463         0.42701
H         -6.97050        -9.87535         0.75819
H         -4.80980       -11.01025         0.95409
H         -2.31228       -11.02929         0.71666
H          0.09826       -11.03265         0.48683
H          2.50561       -11.07735         0.35773
H          5.14061       -11.06917         0.62343
H          7.24650        -9.89010         0.29394
H          8.53495        -7.58404         0.15972
H          9.72447        -5.44449        -0.28559
H         10.92719        -3.24244        -0.21408
