         651
 CSIRO Nanostructure Databank - Neutral Graphene Oxide Data Set
C          6.09758        31.90343         0.37868
C          6.10417        33.25803         0.20361
C          8.52465        27.57178         0.48042
C          8.53985        28.97154         0.41897
C          7.33222        29.74241         0.49211
C          8.54351        31.83945         0.11407
C          7.31861        31.13225         0.33408
C          8.54685        33.21615        -0.16534
C          7.31983        33.97285        -0.10203
C          8.54196        36.01475        -0.73641
C          7.33964        35.34160        -0.36227
C          8.57242        37.38239        -1.04154
C         10.91823        23.25174         0.61582
C         10.91840        24.66327         0.54244
C          9.71752        25.41369         0.51369
C         10.98940        27.51070         0.28591
C          9.73117        26.82041         0.43804
C         11.01103        28.93994         0.16606
C          9.80412        29.64723         0.29536
C         11.10609        31.78098        -0.18867
C          9.81024        31.10496         0.26602
C         10.91364        33.03690        -0.93821
C          9.73913        33.87647        -0.61762
C         10.93405        35.87184        -1.45736
C          9.75112        35.24242        -0.88469
C         11.02504        37.33581        -1.54056
C          9.77263        38.07420        -1.37306
C         10.92099        40.25364        -1.51451
C          9.73753        39.47501        -1.44937
C         10.91831        41.63408        -1.30929
C         13.34336        18.97335         0.93806
C         13.33184        20.39410         1.01519
C         12.14143        21.10422         0.78381
C         13.37159        23.22567         0.83309
C         12.12097        22.52121         0.74064
C         13.38783        24.63432         0.65389
C         12.17893        25.36066         0.48622
C         13.45055        27.46219         0.08727
C         12.19678        26.77428         0.28403
C         13.46916        28.85471        -0.21091
C         12.25915        29.61570        -0.16808
C         13.48854        31.65135        -0.99169
C         12.29335        30.98071        -0.50134
C         13.45256        33.01322        -1.40954
C         12.11208        33.62075        -1.64682
C         13.79013        36.10059        -2.04971
C         11.90770        35.04804        -1.98744
C         13.57825        37.45342        -1.58532
C         12.22953        38.04407        -1.61851
C         13.42619        40.28518        -1.10727
C         12.19733        39.52629        -1.62048
C         13.31129        41.68165        -0.67820
C         12.09195        42.37078        -0.92718
C         13.16236        44.46743        -0.21751
C         12.02713        43.75907        -0.66197
C         13.12048        45.90086        -0.06371
C         15.52498        14.71606        -0.12296
C         15.29330        15.77631         0.73912
C         14.34000        16.82640         0.65637
C         15.71413        18.80285         1.69406
C         14.46835        18.15307         1.14294
C         15.67073        20.35161         1.97250
C         14.55628        21.10698         1.27004
C         15.80849        23.26875         1.37771
C         14.56500        22.49214         1.16241
C         15.82586        24.63671         0.82908
C         14.65356        25.33616         0.57788
C         15.88847        27.44982         0.06167
C         14.66420        26.74084         0.21140
C         15.91450        28.79529        -0.31068
C         14.70128        29.53830        -0.49096
C         16.00603        31.57603        -1.18611
C         14.71179        30.89569        -0.92302
C         16.03265        33.04449        -1.54247
C         14.71189        33.75765        -1.93156
C         16.00436        35.92910        -1.17108
C         14.77172        35.25577        -1.59566
C         15.95613        37.42640        -0.84139
C         14.63829        38.08160        -0.94692
C         15.64131        40.17535         0.16876
C         14.48304        39.46284        -0.46213
C         15.68336        41.64954         0.14767
C         14.44207        42.35667        -0.12584
C         15.51925        44.52340         0.63933
C         14.36602        43.75112         0.04945
C         15.57456        45.89515        -0.01624
C         14.29503        46.65432         0.02389
C         15.56415        48.78418         0.01156
C         14.33981        48.06322         0.00957
C         15.48774        50.29630         0.13686
C         18.00267        10.55952        -0.97965
C         18.01095        11.98023        -0.86006
C         16.81095        12.69353        -0.61498
C         18.06719        14.71492        -0.00068
C         16.80613        14.03212        -0.18333
C         18.13740        16.09468         0.40496
C         17.16643        16.67931         1.18810
C         18.33237        18.85620         1.36374
C         17.08068        18.09761         1.55992
C         18.37659        20.28121         1.74415
C         17.07135        21.03891         1.90928
C         18.39956        23.14421         1.26830
C         17.11083        22.53668         1.68115
C         18.40531        24.52814         0.73846
C         17.12002        25.26447         0.54100
C         18.45969        27.41725         0.33969
C         17.13662        26.75319         0.46459
C         18.50473        28.74364        -0.33037
C         17.21072        29.45691        -0.59001
C         18.46857        31.57837        -0.70206
C         17.25375        30.92304        -0.70902
C         18.55814        33.05654        -1.05544
C         17.23324        33.80591        -1.06588
C         18.38725        35.96010        -0.42560
C         17.18748        35.13965        -0.78243
C         18.23206        37.33833         0.14227
C         17.04463        38.01605         0.00642
C         18.14700        40.22442         0.77691
C         16.89164        39.41469         0.48823
C         18.15312        41.67605         0.51751
C         16.88462        42.33221         0.40968
C         18.18067        44.52716         0.38915
C         16.86327        43.79117         0.61606
C         18.15773        45.96329         0.08362
C         16.85741        46.65454        -0.09100
C         18.05797        48.85281        -0.03244
C         16.78606        48.11997        -0.03284
C         18.02122        50.32697        -0.17855
C         16.81743        51.02336         0.05488
C         18.08691        53.10510         0.29852
C         16.85273        52.41374         0.21573
C         18.14738        54.52005         0.54487
C         20.47880         6.76196         0.62993
C         20.48083         7.84091        -0.23846
C         19.25194         8.48785        -0.57290
C         20.43016        10.50939        -1.46072
C         19.19354         9.80913        -1.05053
C         20.46761        12.01896        -1.25895
C         19.24228        12.69747        -0.82190
C         20.55074        14.73240        -0.36209
C         19.29357        14.04951        -0.39736
C         20.61352        16.06588         0.33752
C         19.36964        16.91385         0.07230
C         20.73435        18.86511         0.93264
C         19.44340        18.23369         0.82799
C         20.81607        20.25542         1.19647
C         19.62316        21.00702         1.40151
C         20.86480        23.06425         0.72377
C         19.58118        22.41783         1.21420
C         20.91772        24.56692         0.85225
C         19.68469        25.29230         0.69734
C         20.99745        27.29844        -0.00919
C         19.70430        26.63040         0.39021
C         20.96941        28.80914         0.05076
C         19.75596        29.51335        -0.20558
C         21.02803        31.59303        -0.64914
C         19.70933        30.89143        -0.43368
C         20.95554        33.09215        -0.37081
C         19.58128        33.69326        -0.09696
C         20.74799        35.86649         0.62705
C         19.65325        35.21419        -0.16768
C         20.77492        37.34548         0.64392
C         19.44538        37.99305         0.71331
C         20.70657        40.23606         0.60363
C         19.45324        39.50718         0.88418
C         20.66409        41.62484         0.31061
C         19.39301        42.35503         0.33933
C         20.60176        44.45771        -0.24044
C         19.41053        43.75788         0.11826
C         20.55449        45.86217        -0.42561
C         19.33233        46.59998        -0.26591
C         20.48054        48.82855        -0.89807
C         19.33456        48.09523        -0.27135
C         20.47410        50.37012        -0.87217
C         19.25211        51.01758        -0.23541
C         20.60528        53.01327         0.46767
C         19.29127        52.38049         0.08446
C         20.61617        54.51545         0.49664
C         19.35444        55.22504         0.62591
C         20.58602        57.33038         1.00616
C         19.38514        56.64313         0.78741
C         20.65260        58.73507         1.07669
C         22.97657         4.56718         2.49073
C         21.77037         5.04126         2.02544
C         23.04334         6.95307         0.90884
C         21.68856         6.31919         1.33650
C         23.02890         7.78966        -0.30067
C         21.75795         8.35427        -0.81561
C         22.96932        10.55855        -1.52499
C         21.72621         9.75127        -1.48897
C         22.96823        11.99877        -1.23775
C         21.76187        12.69709        -1.05672
C         23.01686        14.79638        -0.80913
C         21.77604        14.08366        -0.72410
C         23.01749        16.30755        -0.70605
C         21.87986        16.85823         0.11587
C         23.24797        18.75165         1.09131
C         21.94102        18.13780         0.61202
C         23.29607        20.24954         0.92938
C         22.10194        20.92479         1.10716
C         23.32894        23.13209         1.06251
C         22.05835        22.39002         1.41735
C         23.35584        24.58086         1.50548
C         22.11759        25.27317         0.96065
C         23.39704        27.36597         0.77483
C         22.17749        26.66688         0.69129
C         23.42070        28.78656         0.50976
C         22.18728        29.50642         0.18926
C         23.39288        31.64984         0.26874
C         22.20320        30.91670         0.02653
C         23.40019        33.04132         0.40227
C         22.15754        33.79502         0.15037
C         23.27159        35.87973         1.09224
C         22.01409        35.11517         0.82873
C         23.22533        37.39182         1.09349
C         21.93178        38.07482         0.81634
C         23.15354        40.22469         0.42967
C         21.93372        39.53032         0.66330
C         23.10068        41.56401        -0.00302
C         21.87624        42.29423        -0.02599
C         23.04945        44.39873        -0.62867
C         21.86724        43.72791        -0.33901
C         23.03707        45.81377        -1.06939
C         21.73691        46.56093        -0.96342
C         23.06261        48.77503        -0.94830
C         21.75913        48.06364        -1.09116
C         23.01167        50.27612        -0.91279
C         21.79559        50.90257        -0.24523
C         23.09722        53.13042         0.03291
C         21.78374        52.45725        -0.32940
C         23.10320        54.44943         0.45658
C         21.83131        55.13988         0.66433
C         23.13555        57.22303         1.41286
C         21.82915        56.52993         1.16606
C         23.11564        58.71826         1.56470
C         21.86348        59.44900         1.26510
C         23.15096        61.53872         1.05909
C         21.91643        60.84369         1.16141
C         24.21664         5.15729         2.13993
C         25.51758         6.68401         0.68793
C         24.28947         6.22710         1.24073
C         25.52641         7.67951        -0.30571
C         24.24558         7.99200        -0.91037
C         25.40993        10.56257        -1.05711
C         24.18587         9.94464        -1.67927
C         25.44927        11.98225        -1.57587
C         24.18976        12.72788        -1.29698
C         25.44228        14.90268        -1.63099
C         24.20537        14.13166        -1.16242
C         25.54616        16.31225        -1.01978
C         24.37298        16.79991        -0.22183
C         25.84878        18.72814         0.85950
C         24.50330        18.02239         0.62320
C         25.78902        20.23807         0.75057
C         24.57867        20.91198         0.84034
C         25.88136        23.09721         1.04138
C         24.60276        22.39024         0.80633
C         25.85065        24.50564         1.17571
C         24.64981        25.25883         1.14719
C         25.88457        27.37380         0.86951
C         24.63807        26.65783         0.98123
C         25.86983        28.78114         0.69423
C         24.62880        29.46973         0.52618
C         25.90571        31.63456         0.63155
C         24.69146        30.91514         0.11660
C         25.81930        33.04968         1.13292
C         24.58023        33.79519         0.69890
C         25.80636        35.96665         0.65960
C         24.54592        35.16878         0.87304
C         25.69250        37.44008         0.98236
C         24.51461        38.11476         0.96283
C         25.72400        40.02479        -0.07608
C         24.49160        39.64843         0.92750
C         25.68817        41.49872        -0.47716
C         24.34731        42.19729        -0.52514
C         25.63876        44.41568        -0.95791
C         24.32355        43.67111        -0.81041
C         25.62401        45.92806        -1.00137
C         24.30811        46.63424        -1.10729
C         25.49223        48.82664        -0.34505
C         24.23517        48.09904        -0.81715
C         25.58345        50.26492        -0.88739
C         24.28865        51.04383        -0.93358
C         25.61981        53.23097        -0.34388
C         24.29883        52.51167        -0.55739
C         25.59410        54.54350         0.31595
C         24.36547        55.18725         0.60801
C         25.62607        57.27944         1.04064
C         24.38791        56.53986         1.02747
C         25.64420        58.68174         1.17734
C         24.44073        59.47354         1.42837
C         24.36184        60.89201         1.07759
C         26.69426         8.41624        -0.67381
C         27.89689        10.47211        -1.24403
C         26.69765         9.76670        -1.11381
C         27.99000        11.89377        -1.45346
C         26.75399        12.68347        -1.72529
C         27.98672        14.78495        -1.42406
C         26.77215        14.15042        -1.52415
C         28.10498        16.17808        -1.05204
C         26.87457        16.94642        -0.77097
C         28.20832        18.83836         0.06325
C         27.00179        18.17433         0.04519
C         28.29214        20.23084         0.50088
C         27.04724        20.95152         0.74086
C         28.42020        22.96461         1.37328
C         27.08201        22.34394         0.98565
C         28.42392        24.49595         1.32007
C         27.12298        25.24954         1.28945
C         28.34002        27.37548         0.83000
C         27.11901        26.68532         0.95653
C         28.30453        28.79180         0.70732
C         27.09831        29.50125         0.64971
C         28.37339        31.74677         0.61300
C         27.08378        30.96227         0.68467
C         28.33013        33.15924         1.14864
C         27.10420        33.84632         1.05670
C         28.27826        35.96378         1.22941
C         27.06722        35.25419         1.11798
C         28.26453        37.45057         1.28378
C         26.96905        38.19470         1.10719
C         28.15940        40.29782         0.48952
C         27.00661        39.57243         0.56067
C         28.15458        41.69895         0.05821
C         26.93341        42.32572        -0.35742
C         28.08423        44.50485        -0.42075
C         26.90059        43.72032        -0.57290
C         28.06069        45.95111        -0.50341
C         26.84234        46.67316        -0.61410
C         28.02438        48.78302        -0.33864
C         26.80921        48.07325        -0.49910
C         27.99848        50.24650         0.03470
C         26.86038        51.00679        -0.62237
C         28.06473        53.09960         0.02515
C         26.86433        52.46077        -0.34708
C         28.05969        54.47354         0.36250
C         26.84754        55.20125         0.53496
C         26.84519        56.57151         0.85860
C         29.18350        12.56466        -1.43250
C         30.51559        14.68636        -1.39344
C         29.24282        14.02197        -1.82529
C         30.56963        16.01002        -1.01048
C         29.33628        16.77636        -0.83805
C         30.65357        18.75842        -0.25556
C         29.42102        18.15412        -0.38564
C         30.82192        20.16294         0.26233
C         29.51376        20.90973         0.42671
C         30.75915        23.03197         0.39370
C         29.59020        22.32280         0.66136
C         30.79594        24.49442         0.51109
C         29.63308        25.22261         0.86755
C         30.81008        27.33512         0.49974
C         29.60022        26.63728         0.75531
C         30.80727        28.80120         0.29170
C         29.55163        29.55614         0.52074
C         30.80923        31.61700         1.37057
C         29.57633        30.94808         0.95850
C         30.79722        33.10337         1.65155
C         29.53439        33.86868         1.36869
C         30.79055        36.08975         1.40897
C         29.50586        35.28168         1.34261
C         30.67388        37.49271         0.76053
C         29.50608        38.18042         0.95261
C         30.67788        40.40204         0.61336
C         29.43377        39.70117         1.07601
C         30.64288        41.80201         0.36220
C         29.34826        42.45289         0.12083
C         30.53395        44.61785        -0.09900
C         29.32182        43.85743        -0.12935
C         30.52449        45.98825        -0.32323
C         29.27562        46.68380        -0.42958
C         30.51811        48.83764        -0.36392
C         29.25577        48.10475        -0.38437
C         30.51388        50.23584        -0.27592
C         29.31381        50.97719        -0.13850
C         29.30451        52.35677        -0.04511
C         31.82339        16.66497        -0.78721
C         33.12410        18.71980        -0.38904
C         31.88179        18.02881        -0.49115
C         33.23965        20.12481        -0.42085
C         31.89341        20.89353        -0.58583
C         32.95345        23.13668        -0.62994
C         31.90982        22.37133        -0.20741
C         33.16921        24.54309        -0.30606
C         31.97038        25.22604         0.20998
C         33.31951        27.30987         0.20252
C         32.00516        26.62306         0.33170
C         33.36921        28.79194         0.32693
C         32.09342        29.57363         0.39367
C         33.40720        31.60622         1.26453
C         32.09354        30.96360         0.95584
C         33.41245        33.10390         1.46199
C         32.11955        33.90154         1.82554
C         33.01327        35.53987         0.24394
C         31.98691        35.19657         1.06140
C         32.99732        37.68590        -0.09620
C         31.88510        38.25634         0.47305
C         33.13321        40.36507         0.40577
C         31.91926        39.70769         0.58273
C         33.17977        41.85346         0.53026
C         31.84150        42.51005         0.30169
C         33.03244        44.61319        -0.39569
C         31.84324        44.00640         0.32667
C         32.97947        45.99558        -0.64177
C         31.77579        46.72466        -0.45721
C         31.73619        48.12419        -0.49220
C         34.54787        20.65108        -0.35082
C         35.88670        22.79734        -0.09955
C         34.87680        22.02423        -0.61714
C         35.83535        24.28730         0.26556
C         34.55968        25.10935        -0.06483
C         35.88010        27.24594         0.59249
C         34.57057        26.52022         0.48916
C         35.95047        28.76680         0.79322
C         34.62036        29.49741         0.66448
C         35.83143        31.60742         0.47260
C         34.61541        30.85022         0.81632
C         35.77194        33.08605         0.43323
C         34.57321        33.83760         0.88487
C         35.47682        35.87222        -0.39557
C         34.37920        35.06470         0.31786
C         35.46068        37.40476        -0.16887
C         34.34127        38.18281        -0.00680
C         35.54700        40.31500        -0.35849
C         34.45439        39.63040         0.43913
C         35.37970        41.70335        -0.70188
C         34.27882        42.46340        -0.32428
C         34.16826        43.83897        -0.66715
C         37.02779        25.13588        -0.14084
C         38.23282        27.27909        -0.27723
C         37.09794        26.52743         0.07961
C         38.39342        28.74660         0.06773
C         37.03127        29.44150        -0.06935
C         38.20847        31.66358        -0.22214
C         37.10641        30.92823         0.21390
C         38.20659        33.10136        -0.23821
C         37.03301        33.85314         0.25598
C         38.01122        36.00603        -0.71624
C         36.86916        35.31352        -0.06511
C         37.91371        37.37281        -0.84549
C         36.80719        38.13908        -0.14782
C         36.64582        39.56141        -0.67211
C         39.41554        29.55019        -0.71979
C         40.42217        31.71635        -1.35718
C         39.36023        30.92051        -0.76217
C         40.37045        33.07426        -1.40996
C         39.23917        33.82929        -0.89268
C         39.14542        35.21925        -1.10352
O         23.77665        22.95722        -0.30130
O         17.94836        28.75682        -1.68263
O         11.12271        32.77777        -2.37311
O         25.12296        46.40809        -2.30287
O         21.68184         8.53555        -2.26762
O         14.50554        39.65294         0.98568
O         26.01000        12.18449        -2.90349
O         16.21546        46.00755        -1.31834
O         32.09191        30.72834        -0.49815
O         16.31616        32.04630        -2.58467
O         30.70604        32.14238         2.76489
O         16.44131        36.96361        -2.14356
O         12.79883        35.59980        -2.89740
O         20.29938        11.39963        -2.60274
O         33.68594        32.17502         2.57564
O         16.36904        18.20933         2.84143
O         23.21763        36.61958         2.35289
O         24.88542        53.29493        -1.64572
O         32.80477        36.47710        -0.77361
O         21.77475        33.87521        -1.27986
O         24.94174        43.91097        -2.12304
O         24.92602        41.55468        -1.72595
O         24.54719        16.65940         1.22499
O         16.38830        23.25129         2.74161
O         23.47921        50.86530        -2.16183
O         10.73422        31.78101         1.21188
O         30.05783        29.24336        -0.89803
O         19.01081        48.54432         1.08950
O         35.42304        32.36937        -0.80863
O         17.74852        27.41167         1.63862
O         20.86936        48.38379        -2.22727
O         16.22331        15.87511         1.80821
O         26.03506        17.27077        -2.00350
O         22.18735        45.98378        -2.24564
O         33.97505        25.18286        -1.37937
O         17.26471        39.76168         1.85161
O         23.80836        59.17086         2.74913
O         26.50937        50.52947        -1.96838
O         33.48852        28.12693        -0.99828
O         13.20413        40.08942        -2.52933
O         35.20092        26.67939         1.79722
O         17.76461        24.59043        -0.62258
O         24.28915         8.63928        -2.16491
O         24.74938        40.23423         2.12798
O         22.32062         7.45401         2.05726
O         21.02213        35.17656         1.90849
O         37.17324        34.88769         1.29175
O         17.66532        44.20774         1.76467
O         27.86267        25.03326         2.56999
O         19.45249        35.83858        -1.45403
O         33.92041        22.61048        -1.47953
O         19.39762        38.62594         2.04027
O         27.55765        38.01632         2.45442
O         17.85183        20.64120         3.08328
O         22.41017        56.57591         2.52737
O         21.17406        26.99422        -1.44359
H         21.28483        26.02301        -1.52941
O         35.85482        24.16244         1.72211
H         35.86030        25.07043         2.11407
O         21.89131        50.42283         1.10485
H         21.34264        50.99706         1.69509
O         15.17401        44.76081         2.03023
H         16.00848        44.69896         2.55177
O         25.22543        15.06754        -3.05335
H         25.60313        15.94579        -3.29793
O         32.23250        34.18416         3.23710
H         32.13546        33.32084         3.70250
O         20.57660        15.75938         1.76658
H         21.37468        15.23574         1.98830
O         25.59671        32.86614         2.58246
H         25.52950        33.75420         2.99570
O         33.57230        42.13309         1.95311
H         32.86612        41.74079         2.51476
O         23.18865        18.55835         2.54043
H         23.39303        17.61065         2.70473
O         28.60901        22.59238         2.77308
H         28.17388        23.29986         3.30638
O         25.95021        35.97915        -0.81339
H         26.07717        35.05488        -1.11996
O         38.87527        28.79372         1.44076
H         38.08997        28.77703         2.04314
O         23.29332        24.67472         2.95285
H         22.52906        24.12425         3.25434
O         32.00895        44.38829         1.74067
H         32.80527        43.90184         2.06592
O         25.28329        48.96581         1.09324
H         26.09512        49.38700         1.48020
O         26.19065        18.46560         2.25422
H         25.95777        17.52687         2.43076
O         37.23060        38.25718         1.24363
H         36.49749        38.71758         1.72701
O         19.38289        17.23457        -1.34134
H         18.61628        17.80860        -1.54533
O         25.55415        39.21925        -1.23835
H         25.10202        39.78201        -1.91593
O         14.59477        33.70225        -3.36757
H         14.96693        32.83541        -3.65353
O         29.26284        14.04339        -3.29718
H         28.40290        13.68411        -3.60769
O         35.31091        35.65376        -1.81676
H         34.39183        35.91998        -2.04624
O         36.33807        28.97008         2.18285
H         35.83155        28.32037         2.72237
O         21.59230        52.88016        -1.68914
H         22.24676        52.40126        -2.25333
O         27.69056        50.28275         1.47787
H         28.45828        49.90371         1.95742
O         21.31083        31.43975        -2.07603
H         20.70474        32.06740        -2.54448
O         20.79681        52.65064         1.88363
H         20.07859        53.07385         2.40089
O         20.98043        22.76623        -0.69134
H         20.25063        23.22440        -1.15945
O         36.65378        29.29456        -1.45436
H         35.86489        29.85104        -1.63320
O         31.50205        20.79003        -1.96737
H         32.16341        21.27861        -2.50269
O         20.38228        50.80352        -2.23997
H         20.75520        50.08516        -2.80706
O         21.80861        22.49348         2.84805
H         22.20591        21.71854         3.29917
O         28.54360        31.98919        -0.85245
H         28.82461        31.14014        -1.26564
O         25.13476        10.65286         0.38239
H         24.34970        11.22718         0.51482
O         29.39427        39.96556         2.51591
H         28.67342        39.39240         2.88641
O         24.89531        30.88531        -1.34902
H         24.04304        30.62797        -1.76555
O         19.16457        33.33251         1.23493
H         19.73671        33.83083         1.87314
O         31.39193        20.07900         1.60246
H         30.67114        19.86047         2.23010
O         22.84910        16.85086        -2.04398
H         21.98757        16.54082        -2.39519
O         19.08693        33.12991        -2.40137
H         18.37708        32.81502        -3.00565
O         14.58325        50.82384        -0.84625
H         14.96112        50.65502        -1.73369
O         30.99309        36.47940         2.79616
H         31.35305        35.70078         3.29165
O         34.88121        39.61800         1.84497
H         34.79243        40.54834         2.16635
O         15.26730        20.45258         3.35592
H         16.02456        20.12071         3.89174
H          5.15259        31.37585         0.57435
H          5.16375        33.82586         0.25974
H          7.56609        27.04144         0.58014
H          6.38158        29.21014         0.64564
H          6.40460        35.91917        -0.30704
H          7.64538        37.96901        -0.95272
H          9.96027        22.71117         0.59815
H          8.75359        24.88752         0.57930
H          8.77303        39.98853        -1.31818
H          9.95283        42.16208        -1.29023
H         12.40998        18.48295         0.62078
H         11.20226        20.54726         0.64982
H         11.08723        44.30068        -0.84455
H         12.14910        46.41200        -0.14191
H         14.74896        14.41084        -0.84014
H         13.42971        16.61940         0.07119
H         13.39866        48.63232         0.01615
H         15.02508        50.52914         1.13506
H         17.05402        10.03124        -0.79917
H         15.85104        12.16904        -0.72693
H         15.91205        52.96626         0.35435
H         17.20118        55.07201         0.64945
H         19.51454         6.32438         0.93327
H         18.32033         8.03155        -0.20297
H         18.44065        57.20637         0.74663
H         19.72487        59.31201         0.94129
H         22.99464         3.63154         3.06791
H         20.85728         4.43804         2.13214
H         23.12199        62.61859         0.85477
H         20.98043        61.40287         1.02027
H         25.14646         4.66676         2.46167
H         26.46459         6.31234         1.10682
H         26.60014        59.21033         1.04501
H         25.28761        61.42888         0.82576
H         27.67041         7.98014        -0.40304
H         28.84414         9.91854        -1.14610
H         29.01613        54.98350         0.54688
H         27.79831        57.11208         0.94517
H         30.12347        12.01956        -1.25627
H         31.45179        14.12016        -1.51561
H         31.46878        50.78021        -0.32642
H         30.25364        52.91281        -0.03644
H         32.75344        16.09576        -0.93389
H         34.04804        18.11933        -0.40322
H         33.88077        46.52498        -0.98707
H         32.67572        48.69067        -0.57457
H         35.34976        19.96615        -0.02943
H         36.61794        22.26205         0.52879
H         36.17455        42.18671        -1.29246
H         35.01760        44.31440        -1.18386
H         37.91488        24.63502        -0.55728
H         39.09688        26.73848        -0.69516
H         38.74119        37.94493        -1.29461
H         37.49111        40.01971        -1.21022
H         40.30145        29.03349        -1.12208
H         41.29393        31.18602        -1.76872
H         41.19345        33.63620        -1.87590
H         39.98196        35.72868        -1.60667
