         762
 CSIRO Nanostructure Databank - Neutral Graphene Oxide Data Set
C         23.62564        24.33540         1.82280
C         22.65938        25.02977         2.49779
C         23.31356        27.19464         1.48823
C         22.42950        26.41299         2.26935
C         23.23754        28.62475         1.48809
C         22.13383        29.34481         2.05225
C         23.10831        31.58411         1.56339
C         22.00101        30.70671         1.99589
C         23.19029        32.96869         2.12957
C         22.07666        33.75495         2.21674
C         23.32189        35.78579         2.87579
C         22.13759        35.13661         2.59170
C         23.37701        37.20238         3.17169
C         22.22384        37.94166         3.43221
C         23.28348        40.10526         2.97915
C         22.17653        39.35033         3.36115
C         23.23995        41.51347         2.67711
C         22.02148        42.22487         2.62008
C         23.17400        44.35099         2.24946
C         21.98309        43.59165         2.39484
C         23.14643        45.76193         1.92250
C         21.93925        46.50392         1.89809
C         23.11705        48.46443         1.09185
C         21.93315        47.83653         1.52463
C         25.64071        22.97178        -0.02232
C         25.63200        24.34158         0.26322
C         24.32803        24.99804         0.67024
C         25.51638        27.18206         0.36088
C         24.42416        26.49643         0.85624
C         25.38489        28.62322         0.09016
C         24.22755        29.40984         0.71866
C         25.69951        31.45932         1.38243
C         24.31724        30.91855         0.99062
C         25.76036        32.83238         2.07267
C         24.51074        33.54430         2.49008
C         25.90246        35.77500         2.59283
C         24.59541        35.01775         2.83534
C         25.86819        37.25092         2.52600
C         24.66228        37.91948         3.07437
C         25.67036        40.10257         2.11565
C         24.59438        39.43188         2.94450
C         25.70113        41.57087         2.40850
C         24.47736        42.24786         2.52643
C         25.63339        44.42490         2.24718
C         24.42306        43.68552         2.38065
C         25.61548        45.74098         1.75861
C         24.36042        46.42228         1.56791
C         25.59714        48.31621         0.46775
C         24.32044        47.77174         1.09028
C         25.51594        49.73020        -0.08950
C         27.92984        23.00605        -0.88104
C         26.73552        22.32774        -0.63320
C         28.03204        24.38222        -0.33362
C         26.80458        25.10804         0.04819
C         27.94802        27.31530        -0.23864
C         26.77993        26.52805         0.06654
C         27.85065        28.76347        -0.37735
C         26.59238        29.30929        -0.37564
C         28.01038        31.70498         0.49573
C         26.71339        31.36509         0.27293
C         28.25473        32.92697         1.31799
C         27.06992        33.59629         1.97273
C         28.10554        35.81733         1.44645
C         27.06017        35.08142         1.98475
C         28.15956        37.27010         1.62259
C         26.99304        37.96400         2.15501
C         28.18737        40.13994         2.05217
C         27.01370        39.42530         2.17398
C         28.25861        41.58797         2.25683
C         26.97599        42.25663         2.62540
C         28.17571        44.55404         2.49795
C         26.90256        43.78937         2.64478
C         28.08374        45.94313         2.03575
C         26.85911        46.49572         1.65544
C         27.93246        48.67676         1.50454
C         26.78152        47.88009         1.30790
C         27.82114        50.53114         0.28516
C         26.50569        50.62088        -0.33964
C         30.19830        20.38476        -2.52434
C         29.11431        21.07540        -2.06908
C         29.91520        23.41074        -2.23515
C         29.01035        22.48605        -1.69179
C         30.13933        24.71960        -1.73315
C         29.24101        25.23573        -0.68666
C         30.32110        27.45589        -0.97914
C         29.15321        26.70481        -0.62541
C         30.35648        28.86602        -0.84056
C         29.06374        29.58543        -0.66058
C         30.47706        31.62742         0.04300
C         29.12199        31.05509        -0.23329
C         30.54101        33.10708         0.29265
C         29.30777        33.79325         0.74429
C         30.25068        35.97109         0.06418
C         29.23544        35.15711         0.80112
C         30.26426        37.44231         0.32360
C         29.28510        37.99516         1.28796
C         30.73103        40.12947         1.55711
C         29.44155        39.39403         1.77367
C         30.66990        41.66921         1.43816
C         29.43626        42.29773         2.09503
C         30.63420        44.56064         1.69502
C         29.48029        43.77757         2.28034
C         30.56577        46.04012         1.59356
C         29.34274        46.76467         2.11250
C         30.41482        48.99564         1.33782
C         29.21629        48.14568         1.52794
C         30.29460        50.34687         0.59587
C         29.08807        50.76308        -0.19088
C         30.43246        52.07152        -1.79046
C         29.28917        51.42146        -1.47553
C         32.79597        18.65345        -1.86292
C         32.81483        20.04223        -2.38913
C         31.58312        20.87015        -2.75797
C         32.93017        23.03016        -2.69603
C         31.77050        22.33556        -2.93021
C         33.02522        24.47149        -2.70569
C         31.18940        25.54861        -2.13450
C         32.79631        27.39523        -1.43267
C         31.48820        26.79330        -1.49280
C         32.82203        28.80860        -1.12916
C         31.58938        29.52451        -0.96764
C         32.82192        31.78288        -0.94409
C         31.67439        30.94825        -0.52307
C         32.82314        33.18778        -0.89662
C         31.69342        33.88472        -0.24257
C         32.73971        36.12550        -0.77143
C         31.50004        35.33884        -0.50502
C         32.72455        37.48023        -0.53078
C         31.51717        38.20605        -0.03122
C         33.10122        39.81801         0.84332
C         31.79233        39.42694         0.74873
C         33.23398        41.90558         1.50445
C         31.97862        42.44584         1.67169
C         33.14372        44.65367         1.28025
C         31.98997        43.92660         1.92828
C         33.14298        46.11960         1.41635
C         31.81931        46.87588         1.63382
C         32.93756        49.01799         1.08166
C         31.75644        48.32647         1.32438
C         32.88205        50.49874         0.77101
C         31.57794        51.05419         0.23647
C         32.87835        52.69996        -1.27793
C         31.58509        52.08585        -0.86001
C         32.81937        53.93214        -2.03372
C         35.22574        18.75209        -1.27188
C         33.91349        18.06585        -1.38623
C         35.32611        20.12657        -1.75873
C         34.03180        20.81965        -1.96110
C         35.35181        22.98605        -2.07040
C         34.05921        22.29428        -2.09004
C         35.30524        24.39019        -1.97786
C         34.06828        25.16594        -2.09697
C         35.20204        26.93338        -0.94606
C         34.00889        26.54364        -1.57353
C         35.25026        29.14965        -0.62627
C         34.02715        29.64781        -1.06721
C         35.21480        31.83091        -1.39843
C         34.00951        31.08314        -1.23931
C         35.20314        33.25759        -1.46225
C         33.97944        33.95381        -1.21164
C         35.16105        36.10258        -1.38686
C         33.96728        35.40664        -1.14804
C         35.13231        37.58132        -1.39883
C         33.92451        38.29232        -0.84411
C         35.30866        40.35664        -0.18559
C         34.15269        39.54869        -0.08913
C         35.38734        41.78870         0.20637
C         34.34244        42.54185         0.84100
C         35.41104        44.72136         0.28994
C         34.27319        43.98555         0.78688
C         35.45272        46.17075         0.43611
C         34.27443        46.89901         0.91057
C         35.46748        49.05184         0.83348
C         34.19170        48.29005         0.91185
C         35.45878        50.53176         0.58657
C         34.13834        51.23725         0.35702
C         35.30734        52.88127        -1.22760
C         34.06539        52.29574        -0.69690
C         35.25756        54.18902        -2.06714
C         33.90825        54.71704        -2.27409
C         37.76518        15.84941        -1.18315
C         36.58205        16.52430        -1.14265
C         37.82276        18.68644        -1.51070
C         36.57323        17.98568        -1.14299
C         37.81036        20.09988        -1.71476
C         36.53995        20.80839        -1.80785
C         37.79265        22.96466        -1.97114
C         36.55925        22.25499        -1.97986
C         37.75827        24.37216        -1.90319
C         36.53158        25.05537        -1.79132
C         37.70350        26.96317        -0.87009
C         36.48918        26.36981        -1.23007
C         37.73644        29.19965        -0.60465
C         36.47735        29.84172        -0.79070
C         37.69570        31.83620        -1.55954
C         36.46614        31.15918        -1.31768
C         37.65990        33.23579        -1.79258
C         36.44146        33.95521        -1.63525
C         37.63159        36.10198        -1.69317
C         36.43007        35.40897        -1.59624
C         37.65151        37.58339        -1.65932
C         36.40510        38.36826        -1.40281
C         37.68164        40.42986        -0.86775
C         36.47220        39.75453        -0.82466
C         37.72829        41.86354        -0.67115
C         36.52025        42.54983        -0.24511
C         37.65656        44.73090        -0.75527
C         36.51684        43.98397        -0.18113
C         37.76104        46.22313        -0.48317
C         36.63783        46.86120         0.22075
C         38.01405        49.01553         0.29163
C         36.74707        48.28000         0.62195
C         38.00010        50.48892         0.08522
C         36.72290        51.24709         0.19764
C         37.85048        53.06606        -1.23781
C         36.61226        52.51873        -0.59964
C         37.80279        54.39271        -1.94048
C         36.48454        55.04191        -2.14498
C         37.69407        57.13988        -2.58426
C         36.48280        56.37632        -2.45515
C         40.33210        14.34306        -1.09738
C         40.27571        15.80392        -0.97427
C         39.01632        16.54238        -1.25259
C         40.32141        18.60333        -1.78344
C         39.03288        17.92773        -1.49092
C         40.31394        20.12456        -1.96638
C         39.02743        20.83363        -1.83737
C         40.27982        22.96073        -1.77716
C         39.05396        22.25563        -1.88965
C         40.33508        24.43192        -1.90625
C         38.97924        25.18499        -1.94935
C         40.12830        27.33030        -1.35996
C         38.95416        26.54924        -1.40650
C         40.11095        28.84883        -1.57553
C         38.91133        29.68611        -1.13725
C         40.17944        31.72637        -1.55999
C         38.93127        31.08630        -1.49670
C         40.24684        33.15358        -1.92410
C         38.92459        33.92524        -2.13244
C         40.22806        36.11333        -1.81851
C         38.88805        35.45662        -2.25893
C         40.19180        37.49346        -1.23123
C         38.91179        38.24590        -1.22470
C         40.21899        40.34897        -0.88119
C         38.93178        39.75122        -1.40616
C         40.22182        41.84059        -0.83848
C         38.92233        42.54710        -0.94408
C         40.23529        44.75464        -1.25877
C         38.91702        44.00447        -1.13669
C         40.28828        46.16795        -0.80733
C         39.09900        46.87543        -0.50881
C         40.39804        48.92761        -0.40123
C         39.17289        48.25718        -0.25018
C         40.36940        50.38527        -0.64568
C         39.12876        51.11896        -0.34233
C         40.37767        53.30565        -0.99166
C         39.12955        52.57527        -0.62847
C         40.24474        54.62199        -1.64438
C         39.04757        55.21029        -1.96637
C         40.17183        57.43809        -2.35933
C         38.95425        56.61373        -2.36484
C         40.22821        58.77413        -2.67884
C         42.77268        14.38808        -1.14639
C         41.52153        13.68641        -1.08466
C         42.83810        15.75133        -1.21289
C         41.61620        16.55109        -1.04777
C         42.79551        18.68313        -1.58851
C         41.61523        17.97241        -1.46957
C         42.79410        20.14150        -1.59235
C         41.57200        20.84464        -1.70193
C         42.70099        22.99076        -1.27273
C         41.51162        22.26229        -1.54545
C         42.63415        24.46232        -0.87882
C         41.45127        25.22082        -1.41534
C         42.59995        27.42478        -1.22351
C         41.39542        26.64395        -1.38794
C         42.61853        28.84969        -1.15802
C         41.39734        29.57668        -1.24776
C         42.63042        31.70946        -1.17831
C         41.39663        30.99107        -1.30789
C         42.62942        33.16900        -1.18625
C         41.49721        33.86895        -1.58614
C         42.64930        36.02766        -0.91884
C         41.51760        35.34363        -1.59669
C         42.65992        37.46436        -0.88668
C         41.48258        38.22507        -1.14737
C         42.74777        40.32105        -0.97646
C         41.50105        39.61727        -1.06770
C         42.78937        41.75211        -0.99071
C         41.51762        42.50032        -1.19203
C         42.85441        44.73143        -1.40254
C         41.53422        43.97849        -1.39661
C         42.81795        46.00090        -0.46700
C         41.54608        46.80812        -0.69118
C         42.89232        48.92595        -0.51676
C         41.59303        48.20346        -0.54481
C         42.92340        50.41738        -0.73888
C         41.63022        51.12379        -0.95620
C         42.85897        53.21850        -1.39104
C         41.68027        52.60041        -1.04718
C         42.82212        54.63764        -1.84947
C         41.50723        55.33710        -1.91509
C         42.68509        57.60571        -1.67167
C         41.40959        56.81830        -1.82581
C         42.64403        58.97206        -2.21285
C         41.46636        59.50717        -2.64415
C         45.30180        15.86944        -0.81283
C         44.14004        16.42541        -1.60765
C         45.31928        18.74022        -1.13459
C         44.10126        17.96482        -1.58003
C         45.22458        20.20712        -0.95022
C         43.99771        20.87918        -1.31189
C         45.17651        23.06687        -1.07784
C         43.92222        22.30056        -1.20659
C         45.13751        24.49481        -0.84619
C         43.91492        25.20097        -1.19440
C         45.11051        27.46975        -1.00527
C         43.88147        26.72175        -1.28469
C         45.12398        28.85975        -1.01391
C         43.86867        29.57942        -1.10962
C         45.10833        31.77488        -1.10738
C         43.84162        30.99742        -1.08765
C         45.07205        33.18894        -0.66240
C         43.82262        33.88227        -0.75106
C         44.82445        35.94046         0.35629
C         43.76738        35.28411        -0.52166
C         44.96692        37.45211         0.09306
C         43.86482        38.16198        -0.60952
C         45.25863        40.21941        -0.89461
C         43.94023        39.54863        -0.80564
C         45.28633        41.72822        -0.91608
C         44.00126        42.47978        -0.93005
C         45.30145        44.59242        -0.96870
C         44.06192        43.88725        -1.06719
C         45.28936        46.02049        -0.97378
C         44.09948        46.77291        -0.78732
C         45.33621        48.92125        -1.00865
C         44.12651        48.16941        -0.79478
C         45.34032        50.35439        -1.18888
C         44.16003        51.09602        -1.19515
C         45.35023        53.25979        -1.47380
C         44.13661        52.51142        -1.43773
C         45.26834        54.66970        -1.20460
C         44.13812        55.43467        -1.87748
C         44.97083        57.48644        -0.71084
C         43.97035        56.87314        -1.42349
C         46.34972        16.59063        -0.36218
C         47.51665        18.74521         0.02824
C         46.44468        18.03106        -0.48093
C         47.56867        20.19873        -0.09918
C         46.37565        20.88123        -0.53974
C         47.60541        23.07543        -0.16308
C         46.47813        22.33253        -0.72497
C         47.61837        24.49566        -0.23653
C         46.33658        25.21259        -0.48104
C         47.61182        27.40313        -0.68923
C         46.29869        26.72168        -0.56221
C         47.58343        28.87522        -0.69227
C         46.40376        29.56033        -0.87239
C         47.62288        31.79189        -0.60746
C         46.42424        31.03633        -1.02785
C         47.53251        33.14250        -0.30997
C         46.25603        33.82728        -0.26186
C         47.48770        35.93934         0.62313
C         46.18555        35.18060         0.35002
C         47.47546        37.43696         0.76195
C         46.24130        38.19333         0.33516
C         47.66637        40.27620        -0.02922
C         46.52661        39.41235        -0.56944
C         47.66869        41.72680        -0.15228
C         46.52985        42.43995        -0.52871
C         47.71412        44.58996        -0.42297
C         46.53606        43.88390        -0.66858
C         47.84429        45.98352        -0.83701
C         46.54788        46.75797        -1.12557
C         47.78709        48.95779        -0.96406
C         46.55710        48.22829        -1.07805
C         47.85329        50.33250        -1.17342
C         46.60457        51.02141        -1.56737
C         47.98282        53.19137        -1.79495
C         46.62696        52.53546        -1.74754
C         48.16915        54.42243        -2.48069
C         46.22381        55.39239        -0.44963
C         46.10654        56.77307        -0.24075
C         49.76133        18.76191         0.98738
C         48.60419        18.11124         0.76440
C         50.01681        20.11210         0.36179
C         48.73599        20.90223         0.20874
C         49.91541        23.06848         0.65264
C         48.77713        22.35488         0.24881
C         49.85790        24.56406         0.89430
C         48.75111        25.22585         0.11339
C         50.04959        27.41980         0.09893
C         48.85409        26.63915        -0.28318
C         50.07975        28.80102        -0.10711
C         48.90690        29.53759        -0.65905
C         50.11293        31.70206        -0.05935
C         48.91353        31.06341        -0.61911
C         50.09901        33.17185         0.05699
C         48.79020        33.91254        -0.09161
C         50.01666        36.01397         0.48516
C         48.77914        35.30722         0.35791
C         50.05342        37.43410         0.60386
C         48.77539        38.17300         0.74378
C         50.00379        40.34344         0.80442
C         48.77319        39.62716         0.44651
C         50.03416        41.79808         0.61569
C         48.88827        42.43834         0.21188
C         50.06826        44.67723         0.64583
C         48.83474        43.91383         0.26128
C         50.10511        46.15250         0.40982
C         49.13816        46.76473        -0.59885
C         50.17530        49.03628        -0.03564
C         48.92498        48.24895        -0.34226
C         50.19272        50.45053        -0.43294
C         49.07062        51.08510        -0.93667
C         50.40582        53.15083        -1.35535
C         49.13974        52.50550        -1.33202
C         50.52305        54.42968        -1.91678
C         49.42572        55.05537        -2.49505
C         52.46142        20.19185         0.99000
C         51.14049        20.85578         1.06716
C         52.39244        23.12208         1.31432
C         51.09901        22.36150         1.17442
C         52.42369        24.58376         0.97744
C         51.19122        25.29521         0.79054
C         52.40476        27.45788         0.84124
C         51.18757        26.68675         0.58414
C         52.46322        28.86213         0.44760
C         51.30172        29.54506         0.10809
C         52.49778        31.74146         0.48978
C         51.28600        31.00436         0.12610
C         52.47043        33.07101         0.79293
C         51.16972        33.82604         0.90583
C         52.47096        36.00444         0.66996
C         51.25560        35.30907         0.61579
C         52.50845        37.41439         0.52476
C         51.28463        38.11685         0.58092
C         52.58346        40.33640         0.67871
C         51.31024        39.58296         0.82727
C         52.58466        41.74253         0.74864
C         51.31673        42.48050         0.93998
C         52.66375        44.67157         0.58873
C         51.37756        43.98501         0.93145
C         52.66482        46.06760         0.41035
C         51.43860        46.87565         0.47662
C         52.67382        48.98537         0.10313
C         51.44684        48.29570         0.09184
C         52.68562        50.41944         0.08424
C         51.41289        51.23735        -0.04914
C         52.80665        53.21268        -0.40846
C         51.67516        52.39414        -1.00685
C         53.61842        20.86063         1.12164
C         54.95109        22.99210         0.90367
C         53.67503        22.32486         1.33818
C         54.92874        24.48196         0.66437
C         53.66299        25.22592         0.85540
C         55.00516        27.40631         0.67108
C         53.74902        26.67738         0.95622
C         55.02883        28.79111         0.66506
C         53.77142        29.53160         0.41035
C         55.02559        31.70517         0.90674
C         53.79912        31.03714         0.41723
C         54.98570        33.05767         1.19401
C         53.69762        33.78224         1.18011
C         55.03362        35.93098         0.91450
C         53.70069        35.28045         1.09567
C         55.08771        37.38016         0.54161
C         53.79907        38.16600         0.22593
C         55.00323        40.33036         0.88073
C         53.79553        39.62089         0.66829
C         55.02346        41.72761         0.85071
C         53.81298        42.46774         0.67871
C         55.12101        44.45069        -0.18546
C         53.85186        43.89885         0.48615
C         55.15871        46.02952        -0.26476
C         53.88384        46.78341        -0.02850
C         55.11461        48.95740         0.33743
C         53.89930        48.25813         0.17608
C         55.09333        50.38727         0.50154
C         53.86843        51.11464         0.28890
C         53.83062        52.57994         0.19891
C         57.41367        23.04941         1.06240
C         56.25663        22.41181         1.29607
C         57.49477        24.41613         0.40961
C         56.21325        25.18678         0.67801
C         57.58243        27.36154         0.52914
C         56.23100        26.61446         0.47842
C         57.54081        28.85265         0.69258
C         56.25306        29.55496         0.75026
C         57.41595        31.61048         1.55876
C         56.24556        30.94328         1.01258
C         57.37164        33.04532         1.79088
C         56.18697        33.78150         1.52454
C         57.41934        35.89050         1.66572
C         56.21891        35.20369         1.45520
C         57.65630        37.31189         1.15618
C         56.37732        38.20449         0.68302
C         57.44652        40.29987         1.49190
C         56.13575        39.52561         1.49391
C         57.52920        41.62470         1.16333
C         56.28062        42.50812         1.18939
C         57.59378        44.07640        -0.21005
C         56.38682        43.75106         0.31676
C         57.61202        46.36751        -0.64996
C         56.42292        46.85596        -0.16986
C         57.55405        48.99683         0.47516
C         56.37240        48.26116         0.25083
C         57.49411        50.36311         0.83466
C         56.29846        51.05552         0.81172
C         59.92207        24.48368         1.13595
C         58.74480        25.18678         0.87020
C         59.89963        27.28564         1.51917
C         58.75738        26.60436         0.97670
C         59.90204        28.70079         1.73955
C         58.76314        29.53802         1.30606
C         59.70679        31.49341         2.57023
C         58.57368        30.88633         1.85753
C         59.73793        33.03238         2.63073
C         58.54476        33.76163         2.14657
C         59.82844        35.87519         2.44560
C         58.56780        35.16615         2.07917
C         59.84423        37.37622         2.51506
C         58.52594        38.11255         2.23118
C         60.03108        40.13282         1.51395
C         58.68352        39.47817         1.59041
C         60.05791        41.56877         1.15667
C         58.83263        42.22667         0.87072
C         60.11133        43.98339        -0.23265
C         58.86239        43.45193         0.15870
C         60.16632        46.33412        -0.50747
C         58.90192        47.09342        -0.57301
C         60.09753        48.82545         0.88065
C         58.88726        48.43548         0.14205
C         61.07318        25.14667         1.59607
C         61.05084        26.50526         1.83330
C         60.99869        29.38374         2.33948
C         60.94433        30.70928         2.68055
C         61.03372        33.74591         2.57768
C         61.07815        35.07780         2.40520
C         61.10732        38.15436         2.51815
C         61.18218        39.44055         2.13367
C         61.28233        42.18746         0.85831
C         61.31633        43.39325         0.16170
C         61.29113        46.84537         0.07085
C         61.23979        48.09390         0.78681
O         59.43450        32.23671         3.81610
O         24.20069        29.01815        -0.68857
O         49.78214        33.79742        -1.20878
O         37.73492        48.55579         1.66971
O         49.18828        30.32166        -1.85809
O         32.69100        46.56950         2.74753
O         35.40180        52.86072        -2.67569
O         31.32605        52.46654         0.53628
O         46.06636        26.09015         0.74085
O         30.39571        45.19807         0.39709
O         47.39218        46.20602        -2.21275
O         45.21919        38.23332         1.35311
O         39.40485        37.65700         0.01712
O         55.25229        36.33790        -0.47660
O         27.73146        50.05568         1.59933
O         23.45945        31.67171         0.10195
O         25.26766        32.70950         3.44426
O         40.81088        50.60556        -2.06614
O         48.48600        26.83916        -1.71367
O         49.15637        48.71916         1.00795
O         35.87782        18.56117         0.02429
O         40.34443        19.21731        -3.12016
O         48.05673        37.88540         2.01858
O         46.76633        35.21062         1.69034
O         43.98278        25.84679        -2.50200
O         36.99361        38.28053        -2.76948
O         26.89702        43.02831         3.87721
O         53.04519        27.20390         2.13209
O         30.26951        50.27413         2.04515
O         53.51877        34.63326         2.39834
O         39.40356        44.50444        -2.42877
O         35.21190        27.92318         0.03997
O         33.45318        40.60225         1.93381
O         30.63807        23.01838        -3.38059
O         42.80441        45.62287         0.85688
O         43.03571        49.86310         0.61448
O         50.79177        21.47706         2.32959
O         41.77895        57.36657        -0.51560
O         50.49743        46.77124         1.63236
O         41.19854        36.00283        -2.89322
O         47.02686        38.81386        -1.74090
O         35.56882        50.00332         1.93826
O         42.13207        54.80593        -3.15157
O         49.04074        44.40808         1.65043
O         45.89345        31.51594        -2.31921
O         57.69245        45.08913        -1.18346
O         26.37280        30.60757        -0.85343
O         46.51230        51.62683        -2.90804
O         54.87499        23.47341        -0.46541
O         37.72001        27.98181         0.07643
O         36.74300        52.57036         0.84334
O         29.11055        44.29053         3.58734
O         34.18097        38.25651        -2.28692
O         41.47012        43.07876        -2.55113
O         30.34743        35.62292        -1.35928
O         57.02340        26.96424        -0.75704
O         32.38719        20.14530        -3.77934
O         53.09762        22.83536         2.57658
O         59.45691        39.38306         0.36369
O         31.64725        33.51978         1.18233
O         29.18409        24.53185         0.58842
O         37.92373        53.10742        -2.68018
O         28.90505        30.68849        -1.62537
O         24.99092        38.82555         4.19235
O         45.06832        18.44953        -2.57323
O         33.70706        21.67258        -0.78290
O         51.34677        43.26742         2.19172
O         28.13156        32.94031         2.76513
O         58.54042        29.49870        -0.15526
O         40.21184        41.03133         0.40319
O         40.93691        16.33664         0.23752
O         30.34408        38.24682        -0.90759
O         39.66066        33.37056        -3.26692
O         60.16894        45.07576        -1.11476
O         46.17747        22.73113        -2.11389
O         54.34204        46.43923        -1.42730
O         39.76114        24.97153        -3.14420
O         58.47635        37.12457         0.06235
O         30.47073        39.54674         2.85441
O         25.50485        35.28126         3.92989
O         39.77738        53.38506         0.39177
O         45.41073        40.94121        -2.15721
O         59.71773        36.58616         3.75721
O         31.95445        25.18813        -3.25108
O         31.36473        30.92097         0.95073
O         50.61692        39.91424         2.07618
O         37.28129        45.69856        -1.77835
O         33.49799        51.47558         1.65203
O         59.02685        48.34605        -1.32468
O         53.95496        30.31847        -0.84246
O         56.67595        38.65921        -0.64198
H         57.50939        38.15535        -0.89250
O         57.86657        38.22607         3.49305
H         58.23546        37.50435         4.06735
O         26.17199        30.49241         2.37119
H         26.16899        30.93741         3.25067
O         54.96167        43.98526        -1.55082
H         54.51604        44.71208        -2.05075
O         55.59805        39.26255         2.80633
H         56.31026        38.89518         3.38568
O         52.15819        51.80229        -2.24402
H         52.26167        52.51817        -2.90487
O         47.19666        55.04574        -3.17795
H         46.35074        54.54790        -3.20960
O         44.27602        35.79609         1.68185
H         44.75521        36.43152         2.26235
O         25.76146        47.54371        -0.78341
H         25.61639        46.59644        -0.57037
O         56.12696        42.96117         2.57041
H         55.84076        42.19215         3.10876
O         44.54711        55.49317        -3.28596
H         43.71855        55.41025        -3.82061
O         42.55610        24.47756         0.58813
H         41.74348        24.00088         0.85883
O         47.20731        54.69712         0.18692
H         47.76662        55.30814         0.70600
O         49.46840        24.68225         2.31605
H         50.07869        24.11898         2.84087
O         49.88602        46.67235        -1.84455
H         49.22626        46.65655        -2.57953
O         51.11734        51.81379         1.25571
H         50.82005        51.09035         1.84735
O         25.20813        39.93206         0.72714
H         25.87779        40.32732         0.12974
O         40.02362        28.89941        -3.05066
H         40.19409        29.82504        -3.33155
O         57.61479        24.22943        -1.02759
H         57.47939        25.11656        -1.43682
O         29.65144        46.98483         3.52343
H         28.89414        47.44116         3.94593
O         32.15658        44.04331         3.38125
H         33.07356        43.78924         3.61566
O         50.73505        33.69322         2.29192
H         51.45483        34.06842         2.85055
O         38.77082        35.75091        -3.66990
H         39.51901        35.29103        -4.11641
O         53.80122        38.31998        -1.22933
H         54.74756        38.40234        -1.50069
O         43.02131        45.27427        -2.72880
H         42.70199        44.59042        -3.36110
O         50.53005        19.87471        -0.98783
H         49.83181        19.41486        -1.50064
O         30.45404        41.87469        -0.00039
H         30.46672        42.83874        -0.18937
O         44.37322        16.02378        -2.98513
H         44.95955        16.71246        -3.37870
O         39.00294        40.00269        -2.83153
H         38.22408        39.55782        -3.25193
O         23.43280        24.81013        -0.49008
H         22.61477        25.32248        -0.31363
H         23.79321        23.26770         2.02516
H         22.05240        24.52265         3.26225
H         21.61564        26.89513         2.82670
H         21.30477        28.77151         2.49130
H         21.10350        31.17518         2.42470
H         21.09483        33.33930         1.95006
H         21.19245        35.69553         2.60537
H         21.27823        37.41337         3.61812
H         21.20200        39.83630         3.50822
H         21.07211        41.68337         2.73211
H         21.00491        44.08412         2.31661
H         20.99479        46.02978         2.19593
H         23.07492        49.50976         0.75690
H         20.99274        48.40421         1.53270
H         24.71848        22.39391         0.13247
H         24.56624        49.91510        -0.61801
H         26.61150        21.28671        -0.96200
H         26.28603        51.47671        -0.99856
H         30.05635        19.30837        -2.70801
H         28.20902        20.47126        -1.89806
H         30.53265        52.57307        -2.76329
H         28.43507        51.45429        -2.16830
H         31.85891        18.08068        -1.92383
H         31.82059        54.32160        -2.27828
H         33.85031        17.03764        -1.00064
H         33.77507        55.73599        -2.66408
H         37.75518        14.75440        -1.10609
H         35.63900        15.97932        -1.00321
H         37.58822        58.20208        -2.84615
H         35.53270        56.90219        -2.62795
H         39.40202        13.77262        -1.22322
H         39.33170        59.30096        -3.03563
H         43.68298        13.78747        -1.27825
H         41.53959        12.58939        -1.14715
H         43.58083        59.54074        -2.30191
H         41.45497        60.53856        -3.02513
H         45.33441        14.77690        -0.69176
H         44.86661        58.54458        -0.42993
H         47.17329        16.05720         0.13343
H         46.85015        57.28854         0.38223
H         50.56731        18.28085         1.56028
H         48.46014        17.10031         1.17068
H         51.50434        54.92375        -1.95758
H         49.53216        56.02109        -3.00469
H         52.47744        19.12008         0.74305
H         52.82097        54.30841        -0.50725
H         54.57259        20.33004         0.98716
H         54.67526        53.16405         0.59181
H         58.34433        22.55370         1.37185
H         56.25860        21.44050         1.81344
H         58.42778        50.90598         1.03510
H         56.30082        52.13613         1.00311
H         59.97383        23.39779         0.98760
H         60.05843        49.70296         1.54079
H         61.98411        24.56822         1.80176
H         61.94817        26.98573         2.24228
H         61.92516        28.83623         2.55804
H         61.80186        31.16751         3.19112
H         61.96547        33.16590         2.64080
H         62.04413        35.59961         2.34980
H         61.98612        37.66864         2.96686
H         62.13049        39.98599         2.24520
H         62.22566        41.67760         1.09642
H         62.27175        43.83804        -0.14406
H         62.22070        46.26165         0.07578
H         62.14086        48.41793         1.32598
