         280
 CSIRO Nanostructure Databank - Neutral Graphene Oxide Data Set
C         30.39818        31.50030        -0.27248
C         30.38247        32.72015        -0.47890
C         29.91064        35.83892        -0.25670
C         30.45405        36.99912        -0.23130
C         30.32678        40.27431        -0.01233
C         30.39288        41.51695        -0.03778
C         32.79882        29.09369         1.13652
C         31.68261        29.48732         0.71660
C         32.82291        31.47439        -0.10168
C         31.54857        30.54595        -0.34568
C         32.78166        32.87564        -0.66926
C         31.42157        33.73612        -0.19690
C         32.77896        35.83087        -0.78509
C         31.48197        35.04094        -0.96629
C         32.73877        37.35116        -0.93197
C         31.45681        37.92623        -0.28888
C         32.70548        40.11534         0.34220
C         31.40559        39.31221         0.20421
C         32.70209        41.60021         0.30563
C         31.57199        42.34910        -0.00959
C         32.62584        44.58217        -0.66832
C         31.81187        43.71201        -0.37085
C         35.48611        27.87466         2.26430
C         35.35395        29.32203         1.83109
C         34.05656        29.73553         1.20207
C         35.29507        31.60478         0.13970
C         34.00667        30.97073         0.46046
C         35.27598        32.93719        -0.57774
C         33.99817        33.70725        -0.22077
C         35.31170        35.85551        -0.90928
C         33.96527        35.16289        -0.71632
C         35.27952        37.43562        -0.89684
C         33.99568        37.97585        -0.23897
C         35.22413        40.19068         0.23935
C         33.95935        39.52882        -0.28414
C         35.27297        41.55846         0.36056
C         33.99240        42.28254         0.64100
C         34.98299        45.31523        -0.83793
C         33.62603        45.56276        -0.93054
C         36.03271        46.24759        -1.02392
C         37.73668        27.34824         1.39289
C         36.58314        27.29100         2.22352
C         37.76228        28.69621         0.65831
C         36.50195        29.54890         0.79480
C         37.75216        31.43193        -0.39076
C         36.48217        30.95233         0.28448
C         37.75837        32.96397        -0.54447
C         36.51439        33.71241        -0.18333
C         37.70327        35.91378        -0.73874
C         36.49010        35.19550        -0.18590
C         37.69337        37.34902        -0.27210
C         36.52056        38.02931        -0.25412
C         37.70210        40.07750         0.79433
C         36.44360        39.37023         0.38887
C         37.67348        41.55747         1.08610
C         36.53012        42.31680         0.51450
C         37.82906        44.49450         0.63331
C         36.62649        43.63433         0.10365
C         38.28162        45.82137        -0.07466
C         37.26470        46.29503        -1.00386
C         40.24241        24.73192         1.28864
C         39.09566        25.17764         1.58666
C         40.40122        27.29667         0.17566
C         38.52058        26.31426         0.94586
C         40.31686        28.72500         0.17810
C         39.04321        29.36770         0.24776
C         40.27981        31.60419        -0.11817
C         39.00532        30.89084         0.33026
C         40.27651        32.94152        -0.35834
C         39.03583        33.71480        -0.63442
C         40.18678        35.86591        -0.32375
C         39.02390        35.20072        -0.53540
C         40.23088        37.28845         0.09166
C         38.93508        38.00274         0.22289
C         40.25438        40.12117         0.59615
C         38.95545        39.51888         0.14245
C         40.24292        41.38594         1.35553
C         38.97369        42.22942         1.38079
C         40.31522        44.24703         1.22056
C         39.10122        43.67270         0.98996
C         40.83545        45.48203         0.51683
C         39.67600        46.33205        -0.03304
C         41.37312        47.93034        -0.49699
C         40.29609        47.41071        -0.86718
C         42.82835        24.65171         1.15649
C         41.52381        25.19054         0.96852
C         42.82842        27.31070         0.41225
C         41.58798        26.58062         0.48098
C         42.81038        28.72303         0.21753
C         41.57283        29.41712         0.12020
C         42.77314        31.58807         0.36874
C         41.59971        30.86606        -0.30164
C         42.79889        33.06686         0.01933
C         41.55517        33.70364        -0.58301
C         42.65086        35.96927        -0.73863
C         41.48869        35.15472        -0.07839
C         42.80942        37.33482        -0.03171
C         41.48531        38.05885         0.06663
C         42.74052        40.20788         0.34334
C         41.46260        39.43233         0.34768
C         42.81529        41.54214         1.08628
C         41.53025        42.05318         1.75480
C         42.55487        44.27218         2.41643
C         41.26361        43.54248         2.18664
C         42.92777        45.51595         1.99855
C         41.81373        46.35472         1.36243
C         43.63632        47.91066         0.81733
C         42.39544        47.57329         0.41516
C         43.89801        25.29491         1.14742
C         45.30772        27.40201         0.86870
C         44.17269        26.53783         0.35373
C         45.38857        28.75798         0.02817
C         44.07124        29.50065         0.16169
C         45.34692        31.62757        -0.11406
C         44.09554        30.87307         0.11541
C         45.31390        33.06793        -0.62647
C         44.04692        33.81516        -0.29986
C         45.18288        35.96945        -0.83501
C         43.97838        35.23399        -0.74553
C         45.11363        37.46157        -1.07759
C         43.81124        38.21743        -0.77951
C         45.20413        40.21218        -0.02127
C         43.99894        39.52748        -0.03186
C         45.30689        41.49087         0.66318
C         44.20009        41.99998         1.38831
C         45.56264        43.88932         2.19569
C         44.44224        43.08045         2.26727
C         45.41721        45.28044         2.90307
C         44.29921        46.05400         2.21513
C         44.44845        47.26575         1.60076
C         47.75113        27.43962         0.38894
C         46.70198        26.86983         0.68982
C         47.90016        28.84010        -0.04005
C         46.64322        29.59869         0.44804
C         47.83427        31.75045        -0.54556
C         46.57269        31.02329        -0.05793
C         47.81794        33.24499        -0.28266
C         46.47571        33.91103        -0.07499
C         47.63311        36.19189        -0.20222
C         46.41249        35.35351        -0.52579
C         47.69252        37.40464        -1.14686
C         46.39422        38.23469        -1.10372
C         47.59715        40.36385        -0.61709
C         46.42033        39.63956        -0.58268
C         47.68252        41.71326        -0.08113
C         46.54955        42.20715         0.66334
C         47.82437        44.25224         1.21459
C         46.63031        43.46609         1.34246
C         47.67372        45.47769         1.94619
C         46.76583        45.92781         2.65021
C         50.51636        29.04926        -0.14960
C         49.16472        29.58742        -0.29861
C         50.29831        31.80023         0.07944
C         49.15609        31.08655        -0.15967
C         50.24016        33.31549         0.28224
C         48.96435        33.97574        -0.19119
C         50.11138        36.13958        -0.53962
C         48.95705        35.43473        -0.29458
C         50.09387        37.61621        -0.62358
C         48.91949        38.24956        -0.88088
C         50.06944        40.48818        -1.31489
C         48.76967        39.68969        -1.32453
C         50.06456        42.02288        -0.93275
C         48.84615        42.51734        -0.22129
C         50.20644        44.37274         0.41486
C         48.90141        43.78569         0.46628
C         51.48161        29.72976         0.25435
C         52.74956        31.97856         0.31561
C         51.64824        31.14544         0.21640
C         52.53559        33.22840        -0.02538
C         51.50407        34.04434        -0.25786
C         52.50771        36.31237        -0.74209
C         51.37417        35.35524        -0.97330
C         52.48901        37.53643        -0.67739
C         51.35915        38.46582        -0.38728
C         52.37763        40.65032        -1.25953
C         51.34710        39.75182        -1.17940
C         52.48208        41.92929        -1.17662
C         51.40776        42.68747        -0.73521
C         51.24960        43.96565        -0.13676
O         39.50658        37.42637         1.42927
O         40.90162        41.15956         2.69839
O         39.25332        26.63711        -0.24488
O         38.30060        33.30563        -1.85628
O         43.53278        33.75688         1.08202
O         38.72060        46.79449         0.93006
O         37.30691        35.89034        -2.20036
O         36.49918        34.50209         1.05906
O         48.31707        29.09368        -1.38807
O         33.98659        43.30830         1.30516
O         38.04879        41.90463         2.46077
O         36.63512        28.62952        -0.31704
O         49.95478        41.53755        -2.30795
O         35.48967        44.01851        -0.61275
O         42.60333        41.50158        -0.35879
O         37.00914        39.28356         1.77092
O         35.83771        35.50351        -2.26672
O         45.64636        37.97988        -2.34216
O         32.10940        39.46559         1.49946
O         43.42425        43.45770         3.15320
O         38.84308        31.23987         1.73273
H         39.68333        31.04506         2.20071
O         37.76503        30.85634        -1.70762
H         37.01517        31.25290        -2.20822
O         43.20811        38.62980        -2.02099
H         43.94076        38.71886        -2.67563
O         47.46976        36.62925         1.18058
H         48.33423        36.96888         1.49822
O         47.84479        36.84454        -2.45938
H         47.88320        37.59873        -3.09048
O         41.59079        35.14166         1.37203
H         40.84531        35.65781         1.75218
O         34.02823        33.78415         1.21130
H         33.19282        34.20389         1.53039
O         33.83541        39.95838        -1.67714
H         34.64242        39.64165        -2.15512
O         34.02184        37.53889         1.11963
H         33.34976        38.04704         1.63672
O         32.65736        37.64636        -2.33343
H         32.91226        38.59746        -2.45440
O         46.75429        29.68285         1.89329
H         46.26651        30.47662         2.20030
O         41.76983        33.69808        -2.02177
H         41.83153        32.74551        -2.29194
O         32.73869        32.83242        -2.09011
H         32.18372        32.06766        -2.36114
O         48.38559        39.57028        -2.72648
H         48.60835        40.43009        -3.15465
O         51.22720        35.10807        -2.37067
H         51.98878        34.57623        -2.68119
O         42.25501        36.26520        -2.08816
H         42.14673        35.40694        -2.56332
O         35.38842        32.67698        -1.99041
H         35.53910        33.53507        -2.45364
O         44.43023        26.15077        -1.00011
H         43.72676        25.53474        -1.29382
O         37.31598        44.89641         1.91436
H         37.88459        45.62580         2.25566
O         46.31279        33.94109         1.37764
H         46.75504        34.75746         1.71121
O         38.79755        39.87117        -1.27757
H         39.66317        39.74395        -1.72416
O         35.28970        37.90744        -2.26147
H         36.01052        37.43768        -2.74121
O         50.22193        33.52818         1.71642
H         51.03387        33.12237         2.09054
O         47.77299        31.65300        -2.01178
H         47.81219        30.68594        -2.22966
O         42.50945        31.50469         1.79142
H         43.00757        32.24278         2.21384
O         41.86230        30.90936        -1.74349
H         41.15582        30.39775        -2.19365
O         45.12280        45.13663         4.26746
H         45.81824        44.60039         4.69829
O         45.03524        27.67522         2.22112
H         45.76303        28.24340         2.56997
O         43.36471        37.13031         1.28233
H         42.91964        36.33924         1.68042
O         51.34841        38.82198         1.00624
H         52.19613        39.26660         1.21788
O         41.05991        46.96171         2.39205
H         41.66509        47.37782         3.03955
O         31.17860        34.93711        -2.27764
H         31.48479        35.73296        -2.76409
O         45.38472        33.03217        -2.06274
H         46.22126        32.56205        -2.31743
O         31.61638        30.00455        -1.64546
H         32.29083        29.29440        -1.66365
O         31.43243        34.03957         1.18532
H         31.04912        33.28875         1.68421
O         35.65028        30.16818         2.93510
H         34.87037        30.21319         3.52542
O         41.57716        44.94370        -0.59888
H         41.79611        45.67958        -1.21236
O         45.59296        28.49514        -1.36320
H         45.10410        27.67681        -1.62049
O         33.22921        46.82523        -1.27973
H         32.25625        46.89548        -1.22956
O         40.59649        43.52532         3.45836
H         40.32130        42.59276         3.64533
