         241
 CSIRO Nanostructure Databank - Neutral Graphene Oxide Data Set
C          1.21310         2.06174         0.04596
C          1.18275         3.44721         0.19844
C          2.42839         1.38620        -0.04738
C          2.37743         4.19767         0.28564
C          1.16368         6.36675         0.28981
C          1.13890         7.74652         0.27877
C          2.37871         5.64555         0.37164
C          2.33919         8.49098         0.35986
C          1.10872        10.67106         0.44864
C          1.08282        12.06370         0.43438
C          2.31857         9.95831         0.35110
C          2.26700        12.80400         0.29470
C          1.33976        14.94694        -0.68988
C          1.48330        16.25344        -1.01461
C          2.21890        14.31984         0.36786
C          2.55029        17.08393        -0.49898
C          2.67678        18.39532        -0.88203
C          3.64560         2.09053         0.05392
C          3.62358         3.51308         0.25237
C          4.88592         1.40086        -0.10008
C          4.84534         4.24011         0.41494
C          3.60530         6.36745         0.47027
C          3.55778         7.79228         0.45748
C          4.86554         5.64279         0.52153
C          4.80584         8.57304         0.58250
C          3.52813        10.69349         0.21549
C          3.48050        12.10991         0.16859
C          4.80787        10.00415         0.20789
C          4.71656        12.87043        -0.09608
C          3.57847        14.99517         0.37635
C          3.54884        16.50364         0.50546
C          4.73853        14.31746         0.24657
C          4.90634        17.15487         0.34464
C          3.80334        19.18264        -0.47599
C          4.89937        18.58755         0.10787
C          6.10478         2.05482         0.03789
C          6.10010         3.47280         0.46112
C          7.33519         1.38538        -0.16939
C          7.41066         4.23142         0.38095
C          6.13688         6.35128         0.46745
C          6.12019         7.83922         0.58276
C          7.33658         5.69680         0.25271
C          7.32739         8.60605         0.21885
C          6.00485        10.66047        -0.03861
C          6.00086        12.12415        -0.27290
C          7.27303         9.94937        -0.05883
C          7.26706        12.90373        -0.18498
C          6.06539        14.95343         0.63507
C          6.08621        16.45218         0.42029
C          7.27444        14.23785         0.06393
C          7.37283        17.12936         0.41395
C          6.10975        19.35571         0.45165
C          7.40650        18.59730         0.61881
C          8.60360         1.99721        -0.12079
C          8.62806         3.53235        -0.20673
C          9.72747         1.17225        -0.36126
C          9.87871         4.31009         0.16659
C          8.56604         6.45832        -0.24017
C          8.61438         7.85673         0.41396
C          9.87756         5.72099        -0.00236
C          9.84128         8.63006         0.01341
C          8.51216        10.66830        -0.49195
C          8.51269        12.18764        -0.57169
C          9.80826         9.94140        -0.33592
C          9.78555        12.92198        -0.32977
C          8.52036        15.02687        -0.28287
C          8.55151        16.44576         0.21809
C          9.78084        14.23956        -0.00880
C          9.84067        17.12169         0.25494
C          8.68093        19.28974         0.39587
C          9.85502        18.59243         0.23633
C         11.05693         1.55249         0.01444
C         11.08373         3.70164         0.50529
C         12.29838         1.26929        -0.49575
C         12.34816         4.28129         0.22144
C         11.09194         6.41075         0.05799
C         11.14131         7.90699         0.27620
C         12.33726         5.69927         0.04146
C         12.30769         8.54566        -0.43419
C         11.07203        10.69899        -0.57728
C         11.06088        12.19653        -0.50518
C         12.37071        10.01010        -0.37988
C         12.32311        12.90792        -0.19357
C         11.01259        14.91838         0.55107
C         11.02184        16.42057         0.30788
C         12.30876        14.21494         0.16364
C         12.31321        17.16391         0.59759
C         11.10694        19.27113         0.03214
C         12.31857        18.59991         0.11331
C         13.51923         2.03312        -0.18141
C         13.53572         3.49810         0.03129
C         14.70494         1.35492        -0.32166
C         14.76968         4.20219        -0.11125
C         13.58248         6.36192        -0.14316
C         13.59394         7.78664        -0.51596
C         14.78723         5.64980        -0.14290
C         14.84670         8.54705        -0.39001
C         13.57504        10.66864        -0.33662
C         13.60782        12.17158        -0.54504
C         14.82357         9.92867        -0.27140
C         14.81390        12.83332         0.08077
C         13.58702        14.96063         0.50504
C         13.54170        16.41877         0.04489
C         14.84698        14.29830         0.01650
C         14.86895        17.14259         0.39630
C         13.56184        19.24669        -0.11114
C         14.80918        18.59277        -0.03459
C         16.03012         2.02180        -0.49232
C         16.00521         3.49543        -0.22009
C         17.22894         1.35158         0.11734
C         17.24141         4.16554        -0.23835
C         16.02158         6.38271        -0.32818
C         16.07488         7.78178        -0.33582
C         17.25637         5.61225        -0.51319
C         17.34739         8.48887        -0.32842
C         16.09603        10.56572         0.25695
C         16.10133        12.09165         0.24702
C         17.36347         9.91554        -0.23933
C         17.33435        12.85064        -0.04379
C         16.06868        14.98646        -0.04230
C         16.06309        16.39303        -0.14376
C         17.31604        14.22258        -0.16734
C         17.26160        17.11401        -0.68748
C         16.02296        19.26296        -0.18259
C         17.27968        18.57729        -0.24933
C         18.41936         2.04671         0.22975
C         18.46485         3.47221        -0.04383
C         19.64307         1.38012         0.61545
C         19.71440         4.18106         0.05614
C         18.58710         6.33871        -0.52300
C         18.56925         7.79836        -0.34720
C         19.79450         5.59073        -0.13421
C         19.80399         8.48980        -0.20979
C         18.56078        10.62162        -0.26730
C         18.55009        12.10766        -0.55069
C         19.80655         9.91996        -0.24042
C         19.83755        12.82533        -0.22373
C         18.56485        14.97049        -0.30488
C         18.54637        16.34249        -0.43353
C         19.83184        14.24201        -0.21525
C         19.81215        17.08228        -0.53888
C         18.46303        19.25281        -0.09672
C         19.76494        18.62920        -0.36653
C         20.82354         2.05832         0.69499
C         20.89391         3.47173         0.43280
C         22.10530         4.18153         0.58445
C         21.00167         6.29627         0.06133
C         21.03012         7.75686        -0.07997
C         22.15992         5.55616         0.41068
C         22.22320         8.48714        -0.04270
C         21.04438        10.63193        -0.16250
C         21.04447        12.10014        -0.12334
C         22.22865         9.88739        -0.08991
C         22.24817        12.82726         0.03000
C         21.06120        14.95164        -0.12533
C         21.07805        16.40487        -0.22316
C         22.25595        14.21161         0.01666
C         22.21781        17.16426        -0.02603
C         20.99043        19.27360         0.09024
C         22.16736        18.58052         0.13923
O         19.85713        17.99069        -1.69226
O          5.22979        12.57078        -1.45497
O         12.74070         8.00683        -1.71509
O         15.28347        12.49964         1.44586
O          8.38713        11.37450        -1.77367
O          6.94056         3.71903         1.65252
O          5.52221         8.30099         1.85522
O         11.05169         2.45269         1.10323
O         11.10415        11.50657        -1.81557
O         17.96408         5.90326        -1.78333
O         10.91304        14.75867         2.00514
H         11.76201        15.10347         2.37900
O          8.47578        15.18745        -1.74646
H          8.43806        14.29211        -2.14882
O         13.79838        12.35832        -1.97569
H         12.97285        12.03587        -2.41166
O         18.42913        12.18483        -2.02109
H         19.21346        11.73903        -2.40613
O          6.63390        19.10301         1.77503
O          6.16253        14.74502         2.08348
H          5.52459        15.35452         2.51439
O         12.41741        17.21495         2.05858
H         11.65962        17.74369         2.38858
O          3.09683        16.86744         1.83875
H          2.34314        16.26595         2.05556
O         13.41898        16.36645        -1.38484
H         13.47962        17.27714        -1.74307
O          8.73583         7.63586         1.85853
H          7.83845         7.48201         2.22859
O         13.69997        14.92020         1.96104
H         14.16670        14.08749         2.20304
O         16.28538         1.91156        -1.96791
H         17.06260         2.48011        -2.16444
O          1.60140        14.64042         1.66621
H          0.66921        14.33830         1.63767
O          8.49205         3.77481        -1.65797
H          9.23008         3.31277        -2.11078
O         15.09122        17.15674         1.83254
H         14.20692        17.15258         2.27557
O          8.41039         6.63880        -1.66502
H          8.39441         5.73550        -2.06288
O         11.43580         8.10393         1.69602
H         10.61703         7.85705         2.19003
O         17.12540        17.16760        -2.15041
H         17.98188        17.52812        -2.48331
O         16.12652        10.15623         1.67031
H         15.56701        10.80086         2.16362
H          0.26943         1.50240        -0.01918
H          0.20617         3.94570         0.24861
H          2.44738         0.29722        -0.19592
H          0.21017         5.82910         0.21162
H          0.17103         8.25653         0.19069
H          0.15708        10.13511         0.55913
H          0.11739        12.58480         0.52392
H          0.53263        14.34620        -1.13577
H          0.79586        16.71135        -1.74425
H          1.91586        18.85358        -1.53235
H          4.86896         0.33189        -0.35993
H          3.81933        20.25818        -0.70500
H          7.29664         0.29738        -0.33741
H          6.14746        20.42286         0.13796
H          9.54285         0.14863        -0.72654
H          8.69107        20.38932         0.42389
H         12.40186         0.47749        -1.25287
H         11.09185        20.34837        -0.19311
H         14.67277         0.27665        -0.54140
H         13.54660        20.31369        -0.38551
H         17.21296         0.26280         0.27676
H         16.02372        20.36008        -0.28503
H         19.60430         0.30203         0.82898
H         18.45415        20.29574         0.25608
H         21.74685         1.53335         0.98085
H         23.01424         3.63160         0.86863
H         23.11766         6.07202         0.56213
H         23.18848         7.96826         0.03176
H         23.20069        10.39641        -0.04644
H         23.20463        12.29938         0.13823
H         23.21879        14.73283         0.10040
H         23.18290        16.67179         0.15509
H         20.94011        20.31780         0.43166
H         23.09053        19.09794         0.43694
