         317
 CSIRO Nanostructure Databank - Neutral Graphene Oxide Data Set
C         30.85296        31.53507         2.05970
C         30.65812        32.72764         1.73920
C         30.60274        36.02995         1.69432
C         30.56915        37.26380         1.71893
C         30.59121        40.42890         2.16232
C         30.71055        41.68173         2.36210
C         33.45816        28.78616         1.51758
C         32.41017        29.39238         1.83035
C         32.99660        31.50092         1.02242
C         32.01201        30.76040         1.68979
C         32.78307        32.97136         0.69407
C         31.74288        33.76042         1.58746
C         32.90542        35.91352         0.97029
C         31.51218        35.12324         0.93690
C         32.96829        37.37046         1.16644
C         31.77935        38.09328         1.77831
C         33.06170        40.36583         1.67623
C         31.77781        39.55930         2.00906
C         32.79639        41.79135         1.10477
C         31.69040        42.59901         2.03262
C         32.95475        44.66928         1.54076
C         31.99350        43.95272         1.95471
C         35.73340        27.38600        -0.25009
C         35.61645        28.83287         0.13546
C         34.18588        29.33635         0.26538
C         35.20686        31.60805        -0.08884
C         34.17450        30.86887         0.42746
C         35.12574        33.11047        -0.15300
C         34.13624        33.70709         0.84349
C         35.42140        35.93215         0.73948
C         34.06421        35.22308         0.75250
C         35.34414        37.43149         0.42289
C         34.11469        38.09152         0.87578
C         35.36437        40.31562         0.56646
C         33.97870        39.59993         0.64469
C         35.19529        41.82206         0.18482
C         34.12776        42.58989         1.05284
C         35.26174        44.77562         0.37873
C         33.93799        44.06492         0.52768
C         35.45600        46.11156         0.22525
C         37.62058        27.35940        -1.83345
C         36.60713        26.81348        -0.89436
C         37.72344        28.87030        -1.37409
C         36.38888        29.58448        -1.07515
C         37.71544        31.51916         0.22525
C         36.51126        31.05802        -0.63536
C         37.60085        32.88279        -0.50703
C         36.46886        33.78202        -0.08041
C         37.63103        35.89609        -0.63049
C         36.49868        35.14556        -0.01887
C         37.60628        37.39608        -0.65081
C         36.42914        38.12760        -0.07400
C         37.70149        40.39184        -0.39158
C         36.36261        39.62009        -0.41093
C         37.76151        41.74447        -0.20750
C         36.57373        42.54887         0.33085
C         37.83138        44.74193        -0.06100
C         36.48076        43.98866        -0.23383
C         37.75003        46.22994        -0.55539
C         36.53492        46.70586        -0.22133
C         40.15746        24.54962        -1.59540
C         39.12163        25.19973        -1.81809
C         40.26029        27.27962        -1.35765
C         38.96262        26.65697        -1.86401
C         40.18620        28.53647        -0.50325
C         38.99281        29.43433        -0.83630
C         40.17046        31.49166        -0.36498
C         39.00412        30.80796        -0.23634
C         40.13096        32.97542        -0.08927
C         38.89980        33.62701        -0.73236
C         40.24007        35.91948        -0.84041
C         38.91013        35.12598        -0.84447
C         40.12593        37.37241        -0.25384
C         38.92068        38.13606        -0.79744
C         40.22712        40.31445        -0.14248
C         38.96128        39.62125        -0.65853
C         40.24110        41.72157        -0.77371
C         39.09653        42.52620        -0.12745
C         40.33469        44.73437        -0.63483
C         38.98508        43.96348        -0.76049
C         40.25193        46.13252        -1.27868
C         38.95071        46.89496        -1.08337
C         40.28432        48.91590        -0.67061
C         39.21929        48.32301        -0.84682
C         42.70366        24.45171        -0.88257
C         41.42156        25.03827        -1.12661
C         42.72543        27.17694        -0.95519
C         41.46774        26.44527        -1.08186
C         42.76322        28.54293        -0.83204
C         41.52116        29.29875        -0.50186
C         42.71138        31.62599        -0.91237
C         41.49616        30.79255        -0.47482
C         42.65942        32.92464        -0.04577
C         41.41751        33.68987        -0.42330
C         42.75176        35.89438        -0.34332
C         41.39604        35.16729        -0.11195
C         42.64227        37.34552         0.22511
C         41.50051        38.09401        -0.52407
C         42.71577        40.26916        -0.54442
C         41.53437        39.59687        -0.34509
C         42.75468        41.70743        -0.81314
C         41.58954        42.43831        -0.76409
C         42.82528        44.60797        -1.35215
C         41.52573        43.89564        -1.13186
C         42.86937        46.12780        -1.40578
C         41.57235        46.87401        -1.39620
C         42.80402        48.58705        -0.03978
C         41.69165        48.66859        -0.99800
C         43.78206        25.01919        -0.63577
C         45.18221        27.17245        -0.42531
C         44.06716        26.43398        -1.10796
C         45.29446        28.53898        -0.52594
C         44.05889        29.30417        -0.90089
C         45.35986        31.64937        -0.69313
C         44.04979        30.81953        -0.87998
C         45.20013        32.95604         0.12253
C         43.92390        33.74746        -0.04755
C         45.17031        35.84980         0.48790
C         43.91716        35.08660         0.20982
C         45.22405        37.34264         0.35241
C         43.95553        38.13289         0.17980
C         45.33888        40.16240        -0.54707
C         44.00615        39.56102        -0.25544
C         45.42913        41.53544        -1.21894
C         44.04331        42.34131        -1.39162
C         45.33156        44.59339        -0.88981
C         44.03859        43.82031        -0.82322
C         45.38102        45.96943        -0.89707
C         44.21378        46.87852        -1.12860
C         43.83009        47.90227        -0.05782
C         47.36482        27.07319         0.58036
C         46.37142        26.52636         0.07850
C         47.99499        28.34516         0.14660
C         46.60638        29.25444        -0.30114
C         47.79643        31.37500         0.62994
C         46.64448        30.76085        -0.22605
C         48.20378        32.75206         0.16046
C         46.35155        33.87063        -0.21568
C         47.72724        35.83247         0.54693
C         46.44118        35.14602         0.21031
C         47.76414        37.31684         0.34799
C         46.50042        37.95193        -0.21796
C         47.87729        40.07729        -0.49919
C         46.49010        39.48307        -0.26147
C         47.91985        41.66086        -0.56077
C         46.50814        42.33967        -0.46250
C         47.79391        44.48350        -0.28509
C         46.63195        43.78361        -0.98533
C         47.70864        45.85095        -0.47638
C         46.73404        46.46957        -1.05331
C         50.21956        28.58999         1.46660
C         48.81062        29.08310         1.20830
C         50.10384        31.35470         1.68261
C         49.11810        30.57681         0.74766
C         50.03813        32.85021         1.74228
C         49.10008        33.52900         0.80936
C         50.29215        35.79995         0.93984
C         48.99780        35.03681         0.82796
C         50.16664        37.29998         0.98211
C         48.90792        38.02441         0.58876
C         50.12147        40.20527         0.68515
C         48.98468        39.47677         0.38776
C         50.08225        41.68011         0.71677
C         48.87004        42.32506         0.43967
C         49.96259        44.42214         0.92868
C         48.60502        43.82322         0.77485
C         51.11253        29.23645         2.03841
C         52.22293        31.52789         2.73669
C         51.22528        30.66802         2.16598
C         52.31214        32.76054         2.58854
C         51.26532        33.69661         2.19679
C         52.28551        36.05163         2.26933
C         51.56519        34.99614         1.47604
C         52.20455        37.27615         2.22642
C         51.09744        38.19640         1.84566
C         52.35878        40.38842         1.68207
C         51.44210        39.41354         1.00064
C         52.32981        41.62820         1.58146
C         51.25170        42.44507         1.17222
C         51.04405        43.84467         1.14639
O         38.63321        29.56975        -2.26135
O         50.73156        36.61035        -0.18914
O         42.03497        44.12319        -2.48825
O         38.93479        34.23956        -2.03131
O         39.35716        46.39247        -2.39078
O         47.47199        33.32367        -0.86616
O         35.99357        39.72950        -1.85475
O         48.11479        35.45317         1.93350
O         42.24185        46.65736        -2.63832
O         50.11431        33.55405         3.03892
O         43.95050        39.19112         1.20440
O         34.68464        33.52629        -1.54550
O         45.25231        36.72247         1.66865
O         41.72405        30.02926         0.77079
O         39.08290        38.96518        -1.97097
O         44.16671        30.07665        -2.14797
O         37.20907        36.63475        -1.85157
O         32.05171        38.64120         3.10672
O         47.07850        30.06411        -1.42002
O         39.87886        27.32525        -2.76786
O         37.08810        27.36357        -3.16010
H         37.82519        27.58183        -3.77239
O         32.27905        33.00520        -0.63415
H         32.81008        32.41675        -1.21705
O         46.06906        42.33596         0.90900
H         46.66272        42.89665         1.47615
O         36.03405        40.18841         1.83622
H         35.36407        40.37115         2.54967
O         52.01624        38.98286        -0.21285
H         52.22274        39.76047        -0.77040
O         38.74129        43.84882        -2.16309
H         37.83124        43.49173        -2.30632
O         37.56875        31.52261         1.62640
H         37.27847        30.62419         1.90733
O         36.89520        42.69173         1.73071
H         36.77553        41.78767         2.12655
O         34.61482        42.70584         2.39015
H         33.95191        43.19035         2.92719
O         41.77411        38.06239        -1.94681
H         40.98294        38.44499        -2.39960
O         31.04894        35.04056        -0.38454
H         30.83361        35.93719        -0.71074
O         44.55387        47.64206        -2.26290
H         43.76802        48.17725        -2.52835
O         33.30177        44.06124        -0.75777
H         33.10798        44.99010        -1.00689
O         33.71444        40.50619         2.94798
H         33.42862        39.73944         3.50543
O         49.75220        30.49695        -0.53890
H         49.70047        31.36984        -0.98416
O         47.92193        43.90281         2.06299
H         48.53656        43.59949         2.76480
O         43.12748        35.92835        -1.72317
H         42.35111        36.23948        -2.25791
O         35.58669        29.54615        -2.24597
H         35.85935        28.77398        -2.79820
O         33.29550        39.65663        -0.60855
H         33.88133        39.30472        -1.32187
O         32.14695        41.70228        -0.12459
H         32.36029        42.48942        -0.67719
O         45.98466        41.25594        -2.51416
H         45.29759        41.47723        -3.18950
O         48.72125        28.10339        -1.01692
H         49.27761        28.89154        -1.22246
O         39.78508        37.33143         1.13741
H         40.59079        37.06643         1.65521
O         48.55844        41.98747        -1.81754
H         47.89284        42.41370        -2.42092
O         42.11399        49.29926        -2.15560
H         41.37014        49.36541        -2.78857
O         50.38135        38.64395         2.98425
H         50.24461        37.89495         3.60038
O         47.30889        31.48549         1.98214
H         47.88634        32.09497         2.48930
O         46.47657        37.54958        -1.61724
H         47.14164        38.11656        -2.08529
O         36.32403        29.06794         1.34615
H         35.74917        28.75538         2.08190
O         45.66150        32.10617        -2.00869
H         45.77239        31.30842        -2.57494
O         44.39130        26.39005        -2.49202
H         45.32777        26.11861        -2.59192
O         36.19158        43.92773        -1.65047
H         36.12776        44.85058        -1.98281
O         46.82682        43.75666        -2.43424
H         47.02680        44.68155        -2.70321
O         40.56905        36.05027        -2.23151
H         40.23513        35.23901        -2.68829
O         40.63381        45.03158         0.73726
H         40.42038        44.22562         1.27532
O         39.97073        28.05028         0.84049
H         40.38457        28.70218         1.45341
O         39.47614        42.70059         1.25152
H         38.64317        42.89333         1.76165
O         41.12652        35.18691         1.30854
H         41.77009        34.58360         1.74267
O         35.87732        35.87447         2.14152
H         36.74863        36.32323         2.20394
O         43.75297        43.70416         0.60026
H         44.50869        43.20383         1.00881
O         43.85268        42.35401        -2.81196
H         43.00938        42.83022        -3.02608
O         42.51098        32.52827         1.36491
H         43.41049        32.27736         1.70055
O         38.12483        44.87129         1.32685
H         37.32478        45.21320         1.78071
O         32.25243        34.04448         2.87106
H         32.52462        33.21154         3.30926
O         34.37485        32.34983        -2.32317
H         35.26827        32.05810        -2.64871
O         42.49791        32.05231        -2.26121
H         42.91704        31.39279        -2.85994
O         34.74512        41.80881        -1.16007
H         34.81523        42.70732        -1.55572
O         48.26373        39.55955        -1.80144
H         48.57385        40.34508        -2.32643
O         48.07735        29.04582         2.40246
H         48.59510        29.45311         3.12669
O         33.43539        29.00198        -0.87167
H         33.62617        28.07141        -1.11506
O         34.63866        33.38112         2.16338
H         35.21765        34.12341         2.46387
O         52.31552        34.62537         0.33965
H         52.41101        35.42539        -0.22633
O         45.22765        32.62147         1.54230
H         45.40220        33.44059         2.05462
O         39.96894        41.50922        -2.17137
H         39.82303        42.38877        -2.59694
O         40.07178        40.32492         1.29378
H         40.79445        40.86058         1.68357
O         42.34426        37.25819         1.63197
H         42.73653        38.05936         2.05577
O         35.20677        38.58605        -2.26910
H         35.88829        37.89376        -2.49309
O         37.01434        32.05642        -1.65960
O         39.83310        33.08062         1.33875
H         40.58933        32.66442         1.81453
