         420
 CSIRO Nanostructure Databank - Neutral Graphene Oxide Data Set
C         27.93378        27.52823         1.43978
C         27.92320        28.93544         1.26027
C         26.71950        29.68883         1.37815
C         27.92824        31.75893         0.89845
C         26.72275        31.04907         1.18799
C         27.92775        33.19981         0.72079
C         26.72088        33.94054         0.70317
C         27.92652        36.03269         0.35693
C         26.72047        35.30999         0.52514
C         27.93042        37.46592         0.16219
C         26.72241        38.20930         0.14115
C         27.93149        40.28721        -0.25969
C         26.72264        39.57209        -0.06439
C         27.93600        41.71436        -0.46287
C         26.69950        42.42474        -0.72429
C         27.82983        44.60390        -0.78817
C         26.64876        43.75823        -0.97399
C         27.90448        45.94240        -1.37300
C         30.32066        27.45964         0.95507
C         29.10294        26.81093         1.29850
C         30.33194        28.85403         0.79786
C         29.13855        29.60993         0.94688
C         30.38863        31.74255         0.60780
C         29.13923        31.04099         0.79290
C         30.39827        33.17558         0.55210
C         29.15377        33.89744         0.55560
C         30.39408        36.02198         0.21191
C         29.15647        35.31717         0.37670
C         30.39956        37.43157         0.01384
C         29.15957        38.15656        -0.01330
C         30.40386        40.26712        -0.40064
C         29.16429        39.57330        -0.21776
C         30.40879        41.68389        -0.57702
C         29.16230        42.39102        -0.54658
C         30.40578        44.56095        -0.96242
C         29.17980        43.85815        -0.58260
C         30.35997        45.92688        -1.24067
C         29.09671        46.59112        -1.46557
C         32.76564        24.58059         0.61841
C         31.57368        25.29809         0.70436
C         32.81281        27.38905         0.81855
C         31.56631        26.69863         0.80630
C         32.84378        28.83361         0.72155
C         31.57871        29.53254         0.28986
C         32.83574        31.70771         0.48018
C         31.60215        31.02407         0.52647
C         32.85781        33.14319         0.43876
C         31.62327        33.87460         0.44807
C         32.85069        36.01298         0.16322
C         31.63448        35.31241         0.28600
C         32.86912        37.40526        -0.12998
C         31.63187        38.12344        -0.17770
C         32.86307        40.22358        -0.60434
C         31.63473        39.53918        -0.38851
C         32.85953        41.63698        -0.84148
C         31.63790        42.38048        -0.79539
C         32.82719        44.47673        -1.35741
C         31.65210        43.81601        -1.01742
C         32.86732        45.95347        -1.72399
C         31.60148        46.67389        -1.34026
C         32.85617        48.67213        -0.74308
C         31.63335        48.01453        -1.04125
C         35.33675        23.10687         0.68954
C         35.28264        24.51525         0.60063
C         34.01028        25.23483         0.69371
C         35.29905        27.33095         1.03578
C         34.01783        26.64405         0.82405
C         35.29549        28.84980         1.04924
C         34.02736        29.54068         0.76115
C         35.30517        31.64245         0.49009
C         34.07504        30.97372         0.54341
C         35.31077        33.08046         0.34056
C         34.09159        33.81848         0.35060
C         35.32974        35.96035        -0.14941
C         34.14154        35.32099         0.51772
C         35.33669        37.31815        -0.47018
C         34.10310        38.08573        -0.40354
C         35.30093        40.17603        -1.00149
C         34.09492        39.48787        -0.66019
C         35.31007        41.57943        -1.20764
C         34.08136        42.28993        -1.16802
C         35.38479        44.47438        -1.61658
C         34.04585        43.69715        -1.55868
C         35.34818        45.94953        -1.44160
C         34.16097        46.65861        -1.27172
C         35.18427        48.66637        -0.00367
C         34.07934        48.01880        -0.75288
C         34.96497        49.37764         1.19374
C         37.75308        23.04432         0.29310
C         36.54978        22.41164         0.62578
C         37.72192        24.51772        -0.05950
C         36.49768        25.23433         0.45664
C         37.77972        27.32378         0.67381
C         36.55722        26.62833         0.68868
C         37.83047        28.78109         1.10305
C         36.56349        29.54427         0.79743
C         37.83413        31.61225         0.49372
C         36.56791        30.90773         0.56177
C         37.79752        33.08235         0.45379
C         36.52851        33.76276         0.18424
C         37.86572        35.88406        -0.56502
C         36.51654        35.14037        -0.32111
C         37.81938        37.34457        -0.69621
C         36.57849        37.98306        -0.80372
C         37.87264        40.17694        -1.28675
C         36.52586        39.39785        -1.20249
C         37.79017        41.63040        -1.15050
C         36.57473        42.31295        -1.25977
C         37.76815        44.47203        -0.85426
C         36.59522        43.75184        -1.24081
C         37.76439        45.92148        -0.83671
C         36.65069        46.55913        -1.32766
C         37.64325        48.77889         0.41224
C         36.52324        48.49678        -0.38752
C         37.36690        49.57159         1.54414
C         36.04863        49.87739         1.92160
C         40.25927        20.23306        -0.07193
C         39.05028        20.92579         0.09819
C         40.12888        23.09181        -0.44674
C         38.95833        22.32521         0.02705
C         40.23176        24.53685        -0.08371
C         39.01912        25.22941         0.24837
C         40.27481        27.31398         0.78302
C         39.00901        26.59665         0.54583
C         40.27244        28.78796         0.68316
C         39.08723        29.49646         0.65958
C         40.32142        31.65821         0.37557
C         39.06272        30.93853         0.52596
C         40.35293        33.06743         0.19836
C         39.10141        33.83586         0.29211
C         40.30725        35.94134        -0.17340
C         39.11047        35.23140        -0.17521
C         40.29463        37.36819        -0.39802
C         39.07486        38.05866        -0.67214
C         40.30202        40.18037        -0.70433
C         39.10549        39.46775        -0.88450
C         40.35120        41.63481        -0.93749
C         39.04140        42.39125        -1.09920
C         40.23916        44.52726        -0.54314
C         39.00886        43.81102        -0.74521
C         40.23042        45.93969        -0.38841
C         38.90423        46.60748        -0.08961
C         40.15404        48.77426         0.26852
C         38.94675        48.14033         0.08707
C         40.28291        50.16341         0.72746
C         39.35130        50.78568         1.57738
C         40.37539        52.95746         1.28650
C         39.37034        52.17369         1.82518
C         42.72750        20.24620        -0.29114
C         41.45751        20.89275        -0.35327
C         42.70642        23.06614        -0.71080
C         41.43735        22.32645        -0.66983
C         42.59960        24.55786        -0.95438
C         41.46114        25.17677        -0.14955
C         42.81351        27.31030         0.02751
C         41.62023        26.53518         0.37039
C         42.87994        28.71616         0.41034
C         41.55076        29.51114         0.70654
C         42.78157        31.64266         0.27750
C         41.55305        30.95316         0.42950
C         42.79561        33.06151         0.12738
C         41.56516        33.78076         0.06942
C         42.76142        35.95355        -0.07193
C         41.56461        35.23641        -0.03070
C         42.75675        37.38778        -0.09596
C         41.51642        38.08761        -0.26950
C         42.72197        40.25214        -0.19148
C         41.51099        39.51105        -0.37306
C         42.71619        41.69484        -0.23091
C         41.53220        42.39746        -0.50300
C         42.70005        44.56148        -0.26996
C         41.48852        43.82289        -0.48435
C         42.66300        45.97816        -0.17220
C         41.43825        46.65327        -0.25660
C         42.68740        48.85827        -0.09730
C         41.38297        48.15510        -0.38665
C         42.66117        50.28869        -0.03114
C         41.43862        50.93751         0.36701
C         42.63866        53.08732         0.29779
C         41.46429        52.33852         0.62259
C         43.89363        20.94646        -0.46473
C         45.17341        23.07380        -0.92319
C         43.91022        22.37639        -0.68067
C         45.13076        24.52785        -1.14930
C         43.91466        25.26954        -0.78176
C         45.23019        27.35848        -0.59677
C         43.96549        26.64537        -0.52040
C         45.18755        28.82793        -0.53614
C         44.01140        29.52475        -0.04294
C         45.27297        31.63786         0.11691
C         44.01891        30.91201         0.10810
C         45.25263        33.08175         0.19479
C         44.04215        33.76263         0.07506
C         45.28612        35.93589         0.17904
C         44.05565        35.21540        -0.31046
C         45.29481        37.42664        -0.05842
C         43.96068        38.13817         0.04620
C         45.11515        40.38040         0.47053
C         43.93108        39.54191         0.02853
C         45.16315        41.74879        -0.14472
C         43.95588        42.44452        -0.17908
C         45.19273        44.60697        -0.16078
C         43.94513        43.87316        -0.21970
C         45.19706        46.01581        -0.04629
C         43.90220        46.71421         0.27640
C         45.14052        48.89484        -0.08983
C         43.89599        48.18095        -0.07019
C         45.12838        50.31881        -0.18136
C         43.86819        51.02477        -0.11840
C         43.80454        52.45202        -0.04503
C         47.63871        23.13004        -1.01948
C         46.39997        22.43481        -0.97059
C         47.72463        24.51341        -0.99307
C         46.47902        25.28141        -1.15546
C         47.72253        27.35427        -0.58963
C         46.46504        26.70967        -0.79066
C         47.73245        28.76420        -0.18227
C         46.51864        29.59396        -0.39896
C         47.79020        31.64268         0.44748
C         46.48471        30.96313         0.09624
C         47.73875        33.13520         0.22771
C         46.51149        33.79765         0.23355
C         47.75746        35.92388         0.56989
C         46.46481        35.24518         0.30348
C         47.77939        37.42233         0.60949
C         46.46497        38.15115         0.57835
C         47.68782        40.25051        -0.08599
C         46.45103        39.63442         0.50298
C         47.71899        41.71594        -0.37968
C         46.41504        42.46227        -0.41304
C         47.65485        44.62766        -0.31632
C         46.42999        43.92805        -0.27518
C         47.64796        46.03157        -0.21262
C         46.41320        46.72608        -0.06302
C         47.59231        48.91135         0.05811
C         46.38711        48.19417        -0.01814
C         47.56533        50.31645        -0.05567
C         46.36997        51.00052        -0.20588
C         50.21307        24.57276        -0.87345
C         48.97825        25.23976        -0.84478
C         50.22904        27.37056        -0.52622
C         48.97022        26.66618        -0.66144
C         50.27867        28.80567        -0.38021
C         49.03212        29.51570        -0.07610
C         50.25591        31.71460        -0.14732
C         48.94051        31.00757        -0.34226
C         50.24437        33.11834         0.01468
C         48.99694        33.82927         0.16729
C         50.23963        35.96357         0.26862
C         49.02454        35.23205         0.28626
C         50.23562        37.41162         0.27439
C         49.03653        38.11580         0.34766
C         50.24866        40.29912        -0.05375
C         48.99347        39.52426        -0.06893
C         50.20752        41.74016        -0.13047
C         48.99668        42.43253        -0.26522
C         50.25800        44.63052        -0.39831
C         48.93960        43.88302        -0.51035
C         50.21965        46.07981        -0.11114
C         48.92522        46.83484        -0.40887
C         50.15033        48.89107         0.34051
C         48.84860        48.12979         0.40843
C         51.41988        25.26261        -0.73442
C         52.75588        27.37258        -0.27579
C         51.45138        26.65209        -0.57806
C         52.72248        28.86233        -0.57340
C         51.46494        29.54910        -0.47844
C         52.67488        31.74380        -0.42026
C         51.46022        31.01212        -0.35857
C         52.69735        33.13933        -0.20662
C         51.47502        33.84306         0.00678
C         52.70264        36.00133         0.09961
C         51.47576        35.27089         0.12437
C         52.69452        37.43299         0.14832
C         51.47017        38.14479         0.15143
C         52.69314        40.31628         0.19426
C         51.45137        39.58828         0.08728
C         52.69407        41.72309         0.16615
C         51.46306        42.47841        -0.03348
C         52.79905        44.60471        -0.11776
C         51.47171        43.86818        -0.06768
C         52.76209        46.14523         0.16929
C         51.36431        46.76460         0.15684
C         51.31698        48.22156         0.27132
C         55.13617        27.42859        -0.99747
C         53.99457        26.72470        -0.84812
C         55.16649        28.86942        -0.80882
C         53.90873        29.56581        -0.70393
C         55.20271        31.73306        -0.50138
C         53.91463        31.06051        -0.92993
C         55.18694        33.16972        -0.27472
C         53.95125        33.87072        -0.17802
C         55.17540        36.00640         0.12162
C         53.94556        35.28785         0.01193
C         55.16291        37.44716         0.31151
C         53.93627        38.15822         0.25025
C         55.12044        40.28345         0.67271
C         53.92200        39.58506         0.36415
C         55.07061        41.71359         0.89350
C         53.89829        42.43094         0.51591
C         54.85006        44.49285         1.39908
C         53.86515        43.84508         0.64346
C         54.58758        45.84981         1.86200
C         53.52245        46.54285         1.42053
C         56.35578        29.58133        -0.75015
C         56.36346        30.98558        -0.51238
C         56.38820        33.90573        -0.14735
C         56.38303        35.27812         0.04522
C         56.35206        38.17988         0.56656
C         56.32685        39.54516         0.77670
C         56.12952        42.42591         1.50983
C         55.98522        43.76479         1.83208
O         48.14487        39.57216        -1.31189
O         37.15072        35.19983        -1.65102
O         38.41316        50.04616         2.33380
O         38.47849        33.70751         1.63634
O         46.46966        38.94196         1.80843
O         48.35663        29.02227         1.12087
O         37.20455        39.65366        -2.47188
O         34.74192        43.98154        -2.84246
O         49.67450        44.30750        -1.72196
O         28.45451        44.48468         0.52538
O         45.86706        29.43680        -1.68804
O         40.53799        22.71674        -1.80115
O         39.90608        42.06563        -2.26773
O         47.06249        41.99969        -1.67734
O         45.76250        24.98147        -2.39413
O         41.15220        26.71807         1.74930
O         42.44376        29.06965         1.76357
O         35.32469        28.07167         2.31735
O         47.81711        36.62295         1.86202
O         36.75227        47.91900        -1.64104
O         42.24014        24.74225        -2.36417
H         41.51079        24.09814        -2.55290
O         38.62655        46.18315         1.30690
H         39.37375        46.48803         1.86576
O         45.63485        37.54038        -1.48707
H         45.03437        36.91755        -1.97040
O         37.93432        28.75569         2.56815
H         37.05768        28.43588         2.90092
O         48.08001        31.47599         1.85841
H         47.33726        31.85400         2.37308
O         37.60066        24.56310        -1.53696
H         36.81025        24.03490        -1.77940
O         44.18125        35.21998        -1.80196
H         44.85014        34.54086        -2.03965
O         48.67752        47.70599         1.79799
H         48.72072        48.50572         2.36257
O         52.89743        27.26909         1.18650
H         53.70608        27.76463         1.43680
O         44.78401        40.72435         1.86600
H         45.10383        39.97173         2.42127
O         43.81877        46.68633         1.75646
H         44.65056        47.07667         2.10110
O         34.32863        35.54591         1.97281
H         33.56895        35.12753         2.43158
O         53.86382        31.24410        -2.39969
H         54.67139        30.82352        -2.76554
O         53.18136        44.47579        -1.53237
H         53.15285        43.52303        -1.76438
O         32.91622        46.00293        -3.19046
H         33.63461        45.38017        -3.46825
O         53.47920        46.84204        -0.88173
H         53.48747        46.25073        -1.66951
O         48.97538        47.17625        -1.81487
H         49.13380        46.33697        -2.30513
O         31.54245        29.37924        -1.18094
H         30.72462        29.81843        -1.49819
O         48.59491        31.17075        -1.74689
H         49.38118        30.95483        -2.29078
O         41.18166        48.37590        -1.82870
H         41.16310        49.34471        -1.98093
H         26.99584        27.01381         1.69392
H         25.78294        29.16508         1.61791
H         25.77608        31.59619         1.28574
H         25.75622        33.43007         0.81978
H         25.75527        35.83241         0.51300
H         25.75960        37.70447         0.29198
H         25.76189        40.10277        -0.05841
H         25.77747        41.83982        -0.84363
H         25.71698        44.22328        -1.32873
H         26.98063        46.41208        -1.74184
H         29.08692        25.72384         1.45487
H         29.11897        47.61375        -1.86842
H         32.71889        23.48876         0.50908
H         30.62571        24.74439         0.66466
H         32.80572        49.70182        -0.36143
H         30.69764        48.55768        -0.84499
H         34.42023        22.53705         0.89152
H         33.94278        49.53874         1.56368
H         36.53507        21.32954         0.81758
H         35.87710        50.45782         2.83709
H         40.27740        19.14673         0.09840
H         38.16257        20.34145         0.37662
H         40.39541        54.04166         1.46561
H         38.58763        52.61512         2.45581
H         42.75964        19.16458        -0.09460
H         42.61684        54.18075         0.41213
H         44.84601        20.40287        -0.41535
H         44.70940        53.05096        -0.21377
H         48.55221        22.52162        -0.96951
H         46.45236        21.34105        -0.88102
H         48.50113        50.89124        -0.03750
H         46.39809        52.09391        -0.30399
H         50.24747        23.48287        -1.00379
H         50.15685        49.98522         0.45259
H         52.35164        24.68150        -0.73637
H         52.27239        48.76537         0.26870
H         56.06785        26.92739        -1.30164
H         54.01148        25.63713        -1.00603
H         55.21680        46.24514         2.67411
H         53.30556        47.53624         1.84148
H         57.31400        29.04649        -0.81437
H         57.33587        31.46123        -0.32167
H         57.35645        33.39221        -0.21778
H         57.34741        35.79790         0.12053
H         57.31613        37.65796         0.63109
H         57.26863        40.06681         0.99553
H         57.04065        41.89501         1.81797
H         56.76796        44.28153         2.40556
