         490
 CSIRO Nanostructure Databank - Neutral Graphene Oxide Data Set
C         37.62294        50.21840         1.57035
C         36.44025        50.90548         1.65686
C         37.58157        53.00946         1.26122
C         36.42213        52.32249         1.51602
C         40.22485        48.84968         1.84813
C         40.08766        50.19302         1.36850
C         38.86973        50.89397         1.33773
C         40.02022        53.04173         0.80112
C         38.84191        52.33614         1.12458
C         40.09707        54.45656         0.68045
C         42.55682        48.65301         1.01515
C         41.40786        48.16119         1.78922
C         42.51312        50.13682         0.62525
C         41.37951        50.96183         1.20319
C         42.54549        53.01102         0.41043
C         41.23620        52.24327         0.38482
C         42.54768        54.40590         0.36010
C         41.28852        55.10587         0.44593
C         45.26398        46.00425         1.40139
C         44.01066        46.67036         1.45450
C         45.13052        48.79756         0.84562
C         43.87064        47.97790         1.05981
C         44.93218        50.00745        -0.07612
C         43.75546        50.84567         0.35904
C         45.00541        52.96208         0.20486
C         43.77269        52.26288         0.34266
C         45.02930        54.37610         0.19495
C         43.80666        55.12017         0.27770
C         45.09990        57.19038         0.27037
C         43.87981        56.53005         0.29211
C         47.73202        44.50227         0.99093
C         47.63190        45.87012         0.63767
C         46.40067        46.60570         0.84728
C         47.43365        48.60689        -0.16907
C         46.34365        47.97950         0.43299
C         47.37728        50.04755        -0.42013
C         46.23854        50.76455        -0.16782
C         47.48383        52.97129        -0.19307
C         46.29782        52.19492         0.30893
C         47.49905        54.33290        -0.16238
C         46.28123        55.07503         0.11559
C         47.61928        57.15557         0.28473
C         46.32006        56.47834         0.19639
C         47.69443        58.48313         0.76291
C         50.05300        44.42194         0.26870
C         48.90338        43.79701         0.81176
C         49.98450        45.80152        -0.09329
C         48.76731        46.52674         0.08687
C         49.87622        48.56970        -0.71441
C         48.70047        47.91144        -0.30324
C         49.84414        49.97312        -1.27457
C         48.57950        50.75702        -0.93383
C         49.93956        52.93601        -0.79947
C         48.63269        52.24279        -0.77781
C         49.98716        54.30443        -0.61480
C         48.70563        55.10700        -0.66778
C         50.07020        57.08534         0.17904
C         48.80933        56.46789        -0.01851
C         50.12334        58.43503         0.62748
C         48.91517        59.11303         0.90738
C         52.46500        41.54939         0.14755
C         51.41783        42.31811         0.49823
C         52.32884        44.30946        -0.62891
C         51.25618        43.68415         0.01661
C         52.35096        45.72544        -0.80949
C         51.15439        46.46732        -0.57405
C         52.34650        48.57042        -1.09624
C         51.11578        47.87663        -0.81123
C         52.36371        50.01658        -1.15234
C         51.12662        50.75621        -1.02013
C         52.37980        52.91428        -1.30928
C         51.13619        52.14191        -0.95468
C         52.45331        54.28993        -0.71179
C         51.26274        54.99069        -0.47027
C         52.55836        56.98116         0.16409
C         51.30537        56.35869        -0.05311
C         52.60940        58.36508         0.59358
C         51.40370        59.09066         0.80023
C         52.70602        61.07038         1.36738
C         51.48647        60.44838         1.18555
C         54.84707        39.95555        -0.76105
C         54.78599        41.32999        -0.75681
C         53.42379        41.98280        -0.93177
C         54.81078        44.21765        -1.16640
C         53.49441        43.50423        -1.05747
C         54.84593        45.69966        -1.09029
C         53.57997        46.42134        -1.08281
C         54.87867        48.56801        -1.11049
C         53.55621        47.83029        -1.16769
C         54.81031        49.96772        -1.72229
C         53.58918        50.72173        -1.25753
C         54.88357        52.81372        -1.17524
C         53.64681        52.12386        -1.17201
C         54.93825        54.21268        -0.86992
C         53.71986        54.91783        -0.56218
C         55.04906        56.86767         0.12831
C         53.77206        56.25876        -0.08961
C         55.08715        58.18775         0.77119
C         53.85437        59.00059         0.83077
C         55.20001        61.04172         1.39195
C         53.92096        60.36102         1.21012
C         55.29452        62.33755         1.82744
C         57.28089        39.87642        -0.49803
C         56.07773        39.23533        -0.69758
C         57.24993        41.35420        -0.34757
C         56.01195        42.09848        -0.71502
C         57.35836        44.16220        -1.24930
C         56.05607        43.45638        -0.92893
C         57.33223        45.66957        -1.12533
C         56.06950        46.35095        -1.19402
C         57.34953        48.53538        -1.47991
C         56.05701        47.77783        -1.68881
C         57.35815        49.95285        -1.61055
C         56.11828        50.70638        -1.56564
C         57.32774        52.86521        -1.67597
C         56.10623        52.08431        -1.41024
C         57.39808        54.27873        -1.24074
C         56.19280        54.89585        -0.79369
C         57.51851        56.92423        -0.21662
C         56.23841        56.23519        -0.27533
C         57.60518        58.18994         0.35207
C         56.42416        58.86665         0.91079
C         57.72015        60.87681         1.68816
C         56.47637        60.38224         0.90619
C         57.74674        62.38926         1.72377
C         56.54902        63.03858         1.86329
C         59.82677        37.07859        -0.57807
C         58.62425        37.77172        -0.58502
C         59.77780        39.89337        -0.25270
C         58.55595        39.17735        -0.43516
C         59.80450        41.33412        -0.20046
C         58.53957        42.10339        -0.26426
C         59.76241        44.22920        -0.62730
C         58.58830        43.53954        -0.64285
C         59.80734        45.66290        -0.96397
C         58.53938        46.37037        -1.15772
C         59.78880        48.53073        -1.41253
C         58.55516        47.82575        -1.33152
C         59.82865        49.93852        -1.54492
C         58.60166        50.63759        -1.64117
C         59.89752        52.81982        -1.70596
C         58.62983        52.08476        -1.87100
C         59.79525        54.30190        -2.02041
C         58.62477        54.97905        -1.28646
C         59.90331        57.09759        -0.90719
C         58.69721        56.31554        -0.81240
C         60.01555        58.37731        -0.34773
C         58.89546        58.88781         0.45300
C         60.14384        61.10998         0.70353
C         58.99561        60.25169         1.09337
C         60.16869        62.48744         1.10167
C         59.01791        63.08816         1.70605
C         60.29516        65.11089         2.12032
C         59.11104        64.39220         2.21483
C         62.43723        35.66457        -0.51684
C         62.34011        37.07314        -0.37285
C         61.05786        37.75371        -0.41609
C         62.22583        39.87409        -0.01280
C         61.01141        39.16749        -0.25089
C         62.15974        41.25763         0.27220
C         60.97795        42.04106         0.02623
C         62.22473        44.38347        -0.15401
C         61.07609        43.46920        -0.54312
C         62.35612        45.66739        -0.93528
C         61.00439        46.34915        -1.04151
C         62.35331        48.53188        -1.44559
C         61.03723        47.76416        -1.45951
C         62.29108        50.00613        -1.32270
C         61.09321        50.67642        -1.46468
C         62.35226        52.87632        -1.38780
C         61.07547        52.14788        -1.49262
C         62.37467        54.28150        -1.58756
C         61.13007        55.03095        -1.86412
C         62.41903        57.14847        -1.19230
C         61.12719        56.49116        -1.46213
C         62.41045        58.54474        -0.84965
C         61.22912        59.15191        -0.38959
C         62.43540        61.34227        -0.16167
C         61.25417        60.53678         0.06904
C         62.47691        62.72727         0.19004
C         61.34102        63.27492         0.89321
C         62.59861        65.40096         1.24955
C         61.41003        64.58431         1.44413
C         62.76068        66.55786         1.97402
C         64.86135        35.72373        -0.19929
C         63.64984        35.01342        -0.42293
C         64.80986        37.14358        -0.09439
C         63.54475        37.80696        -0.16555
C         64.69807        39.97908         0.19242
C         63.49598        39.22426         0.02213
C         64.60830        41.35953         0.54579
C         63.32841        41.84026         0.79655
C         64.62071        44.54632         0.57047
C         63.27404        44.01499         0.61418
C         64.67042        46.04199         0.37679
C         63.47949        46.58139        -0.41191
C         64.90230        48.51067        -1.25602
C         63.56116        47.85291        -0.89340
C         64.83505        50.04052        -1.24342
C         63.53296        50.70986        -0.79925
C         64.77767        52.92070        -0.98948
C         63.55198        52.20338        -1.07009
C         64.81109        54.29681        -1.24672
C         63.59389        55.00115        -1.49140
C         64.86956        57.20299        -1.69736
C         63.58793        56.45085        -1.45162
C         64.81528        58.64572        -1.26934
C         63.64526        59.29063        -0.93053
C         64.73308        61.52135        -0.94274
C         63.60691        60.72663        -0.68125
C         64.69474        62.93381        -0.79267
C         63.59079        63.55971        -0.18660
C         64.61423        66.09638        -0.16816
C         63.53490        65.03307         0.14889
C         64.73011        67.27347         0.74596
C         63.84172        67.46099         1.76049
C         67.27426        32.94942         0.47203
C         66.21423        33.59428        -0.05230
C         67.28248        35.79522         0.19974
C         66.12030        35.05413        -0.03331
C         67.26048        37.21679         0.24444
C         66.01515        37.89691         0.10905
C         67.17892        40.06889         0.39372
C         65.97398        39.32232         0.20636
C         67.13687        41.56362         0.38111
C         65.78913        42.26185         0.47291
C         67.02031        44.46303         1.04467
C         65.73377        43.75352         0.68849
C         67.14259        45.86632         0.50248
C         65.99448        46.44725        -0.28653
C         67.17266        48.65207        -0.15591
C         66.05343        47.95259        -0.44619
C         67.35484        50.02455        -0.69937
C         66.10045        50.79516        -1.01935
C         67.33635        52.97145        -0.71672
C         66.03594        52.21624        -0.49290
C         67.35191        54.32213        -0.89921
C         66.13410        55.01504        -1.47804
C         67.41638        57.20720        -1.36945
C         66.07718        56.49353        -1.05993
C         67.34302        58.69722        -1.08055
C         66.08053        59.38856        -1.42038
C         67.26089        61.60467        -0.99002
C         66.01549        60.88458        -1.33897
C         67.22543        63.01349        -0.98182
C         65.90088        63.52478        -1.49828
C         67.17968        66.04213        -0.66733
C         65.82120        65.96526        -1.06022
C         67.18846        67.26384         0.94003
C         65.96260        68.12881         0.57742
C         67.28159        69.97876         1.51173
C         66.06884        69.39599         1.39098
C         69.77618        31.61029         1.39865
C         69.70327        33.00329         1.29866
C         68.38820        33.74305         1.11917
C         69.71415        35.87412         0.86066
C         68.58810        35.03386         0.31564
C         69.69532        37.28106         0.69395
C         68.47818        37.97264         0.43229
C         69.67006        40.19750         0.51712
C         68.41249        39.40409         0.46007
C         69.61028        41.64144         0.84644
C         68.36556        42.32457         0.75015
C         69.50705        44.45325         1.18431
C         68.31651        43.70588         0.93180
C         69.47005        45.89103         1.25286
C         68.26406        46.57148         0.79549
C         69.52359        48.73054         0.82885
C         68.17835        48.09151         0.82229
C         69.83420        50.05753         0.19125
C         68.64148        50.74975        -0.48039
C         69.69414        53.02152         0.15021
C         68.69562        52.26907        -0.70756
C         69.69550        54.42720         0.02372
C         68.55760        55.11455        -0.60096
C         69.55992        57.30235         0.09137
C         68.53617        56.48616        -0.65670
C         69.67357        58.74928        -0.31931
C         68.46136        59.42512        -0.71190
C         69.60818        61.62393        -0.42239
C         68.44080        60.89015        -0.69606
C         69.59703        63.03253        -0.47102
C         68.39380        63.74573        -0.71236
C         69.60994        65.74605         0.28823
C         68.42565        65.23146        -0.55878
C         69.67290        67.26598         0.39458
C         68.49804        67.97314         0.73609
C         69.73680        70.08021         0.90167
C         68.50928        69.34904         1.02332
C         69.79710        71.48223         1.13727
C         72.15104        31.72764         1.85555
C         70.99193        30.97174         1.66426
C         72.09192        33.11739         1.79090
C         70.87419        33.77604         1.51923
C         71.83644        36.04569         2.07133
C         70.81752        35.23076         1.44329
C         71.91163        37.37278         1.82057
C         71.05356        37.95978         0.72781
C         72.10803        40.26568         1.25029
C         70.99016        39.48249         0.69750
C         72.01022        41.60467         1.42411
C         70.78210        42.33832         1.19606
C         71.88745        44.53075         1.71601
C         70.74120        43.76660         1.36751
C         71.81756        45.90409         1.85677
C         70.62178        46.61255         1.59532
C         71.84171        48.87134         1.74148
C         70.53016        48.12497         1.78196
C         71.84800        50.19781         1.56788
C         70.55011        50.92572         1.28681
C         71.78344        53.12681         1.38238
C         70.70989        52.37083         0.87335
C         71.87231        54.48700         1.13754
C         70.82054        55.16997         0.48561
C         72.03120        57.34955         0.45737
C         70.87031        56.59774         0.29235
C         72.01677        58.74603         0.33479
C         70.85332        59.44798        -0.05045
C         72.05871        61.62226        -0.67795
C         70.88899        60.95934         0.01494
C         72.05067        62.96484        -0.82185
C         70.87403        63.74948        -0.45811
C         72.08577        65.89913        -0.31447
C         70.89203        65.11281        -0.22566
C         72.08783        67.24326        -0.07666
C         70.88883        67.96642         0.27577
C         72.12565        70.14142         0.36666
C         70.92585        69.39011         0.50561
C         72.15379        71.50139         0.60491
C         70.97937        72.17914         0.99370
O         61.83201        47.98571        -2.70316
O         63.39043        65.99486        -0.95481
O         42.15399        49.11005        -0.34681
O         65.53899        50.65902        -2.35377
O         63.13236        42.98725         1.55656
O         59.38049        59.07704         1.88297
O         66.08168        60.22985        -2.65169
O         68.13914        66.06534        -1.74599
O         66.47834        42.05868        -0.82903
O         70.56593        39.93663        -0.63792
O         57.83340        52.54450        -3.01010
O         65.80277        63.97416        -2.63031
O         66.09789        45.90915        -1.58214
O         61.18291        56.07923        -2.88926
O         55.83023        58.22312         2.06767
O         54.02747        43.83997        -2.38656
O         48.23017        51.63806        -2.07928
O         67.06960        66.42358         1.88318
O         68.37196        50.06978        -1.76512
O         57.74691        41.83900         0.96932
O         45.45286        49.36680         2.16786
H         45.66646        48.62179         2.76963
O         52.86701        41.48727        -2.18124
H         53.24812        42.05143        -2.89268
O         67.94757        34.13652         2.44893
H         67.80244        33.32228         2.97379
O         48.45651        55.36876        -2.08928
H         48.43370        54.50216        -2.54934
O         67.73360        57.14735        -2.77649
H         66.88584        57.17011        -3.28577
O         71.69917        37.57150        -0.53293
H         71.38441        38.21989        -1.20559
O         66.08524        68.52684        -0.80996
H         65.31889        69.09364        -1.03604
O         44.64016        49.52945        -1.41378
H         43.69992        49.22002        -1.41263
O         55.17849        48.73728         0.30280
H         54.42453        49.20743         0.71746
O         67.55813        48.35271         2.16400
H         66.68475        47.89524         2.16412
O         41.81395        51.31537         2.54578
H         41.11192        51.86303         2.95634
O         52.24835        53.13981        -2.77430
H         52.08443        52.26305        -3.18493
O         66.85693        44.68086         2.50612
H         66.11911        45.32743         2.60925
O         59.45369        54.36331        -3.42754
H         59.83334        55.20434        -3.77478
O         61.35442        43.12194        -1.94366
H         61.84495        43.87491        -2.36743
O         70.01444        48.33346         3.15279
H         69.05387        48.08528         3.14133
O         57.60039        60.46040         3.05758
H         58.07191        59.59692         3.13747
O         65.56124        66.36320        -2.30648
H         66.38912        66.29827        -2.83435
O         41.00887        51.83932        -0.99660
H         40.90891        52.65166        -1.53524
O         65.06650        57.22480        -3.14285
H         64.32170        57.71929        -3.54515
O         65.92330        52.09401         0.95732
H         66.06731        52.97804         1.35550
O         65.90706        56.55670         0.36857
H         65.02815        56.18599         0.59436
O         55.92399        47.59468        -3.12338
H         55.57592        48.43519        -3.51277
O         69.21288        52.45661        -2.05778
H         68.87610        51.70042        -2.59496
O         63.50069        50.50817         0.65150
H         62.78026        51.06041         1.02053
O         68.98288        34.62803        -1.02475
H         69.24037        35.43231        -1.52198
O         56.65148        60.74779        -0.49065
H         56.53746        61.71904        -0.56573
O         64.68807        46.67968         1.69913
H         63.80314        46.56465         2.10659
O         66.32402        54.96215        -2.91467
H         66.49495        54.03031        -3.16627
O         46.52504        52.02198         1.76824
H         46.03353        51.21152         2.05684
O         65.08720        48.07888        -2.61368
H         65.47128        47.14943        -2.55086
O         70.83270        49.86753        -0.84633
H         70.34612        49.56687        -1.64775
O         49.84967        49.77253        -2.72181
H         49.32299        50.51384        -3.10570
O         69.43735        65.21659         1.62786
H         68.59173        65.60765         1.99366
O         54.59643        49.84604        -3.17300
H         54.72936        50.73512        -3.56636
O         57.50890        43.93229        -2.70064
H         56.79729        44.43572        -3.15368
O         69.72500        50.97431         2.46497
H         69.78507        50.09260         2.92207
O         62.76054        45.36781        -2.30831
H         62.68957        46.21372        -2.81840
O         68.99556        57.39871         1.47204
H         69.61331        57.95435         1.99584
O         71.04098        61.24380         1.44860
H         71.00420        62.21911         1.55923
H         37.61996        49.12516         1.67767
H         35.49886        50.36795         1.83592
H         37.53650        54.09872         1.12698
H         35.46785        52.86127         1.59626
H         39.36627        48.36503         2.33719
H         39.19302        55.06574         0.82258
H         41.49204        47.19162         2.30083
H         41.27777        56.20158         0.37851
H         45.28744        44.95248         1.71201
H         43.12690        46.07949         1.73735
H         45.10355        58.28846         0.29277
H         42.96187        57.13068         0.34250
H         46.86408        43.97535         1.40763
H         46.77914        59.02890         1.02761
H         48.92745        42.73285         1.07934
H         48.92901        60.14894         1.26905
H         52.57318        40.53736         0.56458
H         50.69462        41.93397         1.23148
H         52.71733        62.13286         1.64312
H         50.57443        61.04026         1.33371
H         53.91606        39.38140        -0.86994
H         54.39894        62.90265         2.11984
H         56.03127        38.14277        -0.80070
H         56.51475        64.13083         1.98581
H         59.80225        35.98692        -0.69738
H         57.69920        37.19468        -0.71815
H         60.32380        66.12417         2.53986
H         58.24743        64.85031         2.71450
H         61.53181        35.06816        -0.69261
H         62.06063        66.80182         2.78332
H         63.66786        33.92000        -0.52204
H         63.95084        68.31663         2.44114
H         67.29265        31.84979         0.47886
H         65.38520        33.01196        -0.47913
H         67.35794        70.95210         2.01745
H         65.16533        69.90157         1.76502
H         68.87618        30.99454         1.26050
H         68.88861        72.02693         1.42756
H         73.10809        31.22735         2.05784
H         71.03154        29.87525         1.72193
H         73.01002        33.70451         1.93175
H         72.51846        35.58163         2.79872
H         72.67587        37.98567         2.31817
H         73.05084        39.75549         1.49149
H         72.88895        42.14682         1.79773
H         72.85159        44.03726         1.89471
H         72.72508        46.44411         2.15750
H         72.78529        48.33921         1.92529
H         72.80395        50.74125         1.56034
H         72.56721        52.64379         1.98034
H         72.73288        55.04681         1.52805
H         72.98320        56.85236         0.69089
H         72.93696        59.31048         0.53923
H         72.94330        61.03050        -0.95528
H         72.93254        63.48160        -1.22790
H         73.02640        65.40688        -0.59916
H         73.03819        67.78504        -0.16634
H         73.05586        69.64562         0.05983
H         73.09290        72.05992         0.48873
H         71.00793        73.26225         1.17642
