         576
 CSIRO Nanostructure Databank - Neutral Graphene Oxide Data Set
C          5.90614        19.20054         1.23203
C          5.91662        20.57518         1.24575
C          4.79410        21.35536         1.74558
C          5.52673        23.53477         0.80075
C          4.69618        22.71465         1.68027
C          6.03003        24.80282         0.98318
C          8.22164        14.79609         0.78527
C          8.23642        16.16635         0.74633
C          7.06191        17.00531         0.92686
C          8.30810        19.12312         0.64653
C          7.07945        18.39373         0.93743
C          8.33319        20.48262         0.49639
C          7.19323        21.34395         0.97468
C          8.22017        23.30715        -0.46966
C          7.04934        22.54137         0.07155
C          8.28509        24.78236        -0.06963
C          6.94461        25.49957        -0.01158
C          8.32721        27.63806         0.20544
C          7.10727        26.96755         0.26649
C          8.39228        29.05702         0.32211
C         10.75548        10.31654         0.64437
C         10.76933        11.78689         0.96855
C          9.46393        12.51041         0.76799
C         10.60178        14.62178         0.00220
C          9.52327        14.01510         0.90850
C         10.66585        16.10344        -0.07509
C          9.55196        16.86011         0.60389
C         10.74156        19.02331        -0.07220
C          9.56397        18.34827         0.54005
C         10.88080        20.49612         0.13609
C          9.58567        21.24334         0.25410
C         10.70208        23.32124        -0.55475
C          9.53135        22.62137        -0.23203
C         10.69806        24.72904        -0.50715
C          9.49882        25.45405        -0.15820
C         10.79127        27.58178         0.06054
C          9.57476        26.90422         0.03232
C         10.86972        28.99644         0.29213
C          9.62597        29.75477         0.38555
C         10.95111        31.78423         1.02954
C          9.67370        31.14186         0.56092
C         10.91215        33.30307         1.15801
C         13.32377         6.02769         0.39942
C         13.28179         7.46782         0.84310
C         12.01088         8.20212         0.51128
C         13.24485        10.33562         0.46066
C         11.96837         9.60527         0.53144
C         13.23376        11.74379         0.33555
C         11.91892        12.42900         0.21333
C         13.17103        14.56393        -0.60389
C         11.85866        13.83971        -0.25131
C         13.15973        16.07185        -0.38032
C         11.98839        16.76589        -0.26339
C         13.24316        18.99904        -0.32721
C         11.96272        18.24005        -0.39542
C         13.20206        20.43539        -0.69489
C         12.06135        21.14532        -0.49203
C         13.18129        23.28537        -1.32065
C         11.93466        22.56368        -0.90880
C         13.15229        24.79391        -1.31066
C         11.91769        25.50417        -0.82382
C         13.29895        27.60692        -0.30440
C         12.07289        26.78204        -0.01383
C         13.33916        28.93040         0.05055
C         12.11572        29.66503         0.34345
C         13.42160        31.73184         0.20664
C         12.19008        31.10014         0.43094
C         13.51917        33.11551        -0.13165
C         11.70306        34.17142         0.47190
C         13.35627        36.06749         0.58319
C         12.10972        35.51793         0.83053
C         13.52395        37.45575         1.01482
C         15.77478         6.08636         0.28255
C         14.49751         5.38326         0.23191
C         15.73841         7.53739         0.29599
C         14.53304         8.21709         0.46113
C         15.70066        10.38566         0.25799
C         14.48240         9.64694         0.39789
C         15.67247        11.81291         0.27591
C         14.41501        12.48150         0.25570
C         15.68719        14.57517        -0.25952
C         14.34280        13.99553         0.23588
C         15.65222        16.08115        -0.35112
C         14.46606        16.75150        -0.42671
C         15.76891        18.96571        -0.68237
C         14.51182        18.23747        -0.37791
C         15.73877        20.35034        -0.92840
C         14.43984        21.05503        -1.31347
C         15.73515        23.22049        -1.48931
C         14.48604        22.56213        -0.95603
C         15.74314        24.71284        -1.47310
C         14.48040        25.52123        -1.29542
C         15.84996        27.56041        -0.54464
C         14.53603        26.91640        -0.74786
C         15.85729        28.94854        -0.30017
C         14.68160        29.51585         0.47159
C         15.92696        31.77131         0.04343
C         14.71757        31.06591         0.63006
C         15.97430        33.26578         0.26184
C         14.62284        33.92274         0.06308
C         15.78610        36.07809         0.01609
C         14.57489        35.37188         0.12384
C         15.81086        37.58934         0.05951
C         14.64571        38.16603         0.80857
C         18.23381         6.12468         0.20419
C         16.97982         5.41629         0.25447
C         18.18744         7.55798         0.07454
C         16.97739         8.25783         0.11698
C         18.14557        10.45446         0.07969
C         16.94798         9.70593         0.11682
C         18.11317        11.85518         0.32856
C         16.90288        12.53631         0.36623
C         18.14268        14.78679         0.34460
C         16.84735        14.03335         0.59025
C         18.16828        16.09936         0.01390
C         16.97660        16.75122        -0.66315
C         18.21573        18.94326        -0.60200
C         16.98246        18.25625        -0.56544
C         18.20285        20.35883        -0.82045
C         16.96863        21.06411        -1.00137
C         18.22378        23.16063        -1.19439
C         17.00647        22.47656        -1.23656
C         18.27520        24.63014        -1.53598
C         17.00494        25.31845        -0.84873
C         18.26276        27.48691        -0.72463
C         17.04732        26.84100        -0.84532
C         18.30089        28.92747        -0.49791
C         17.05021        29.67146        -0.42215
C         18.29560        31.85406        -0.69729
C         17.06676        31.11313        -0.36344
C         18.28061        33.21884        -0.74381
C         16.96148        33.95723        -0.68863
C         18.24764        36.09325        -0.24683
C         17.03765        35.42175        -0.29899
C         18.31342        37.45492         0.27770
C         17.13136        38.13927         0.52394
C         20.72205         6.17705         0.18040
C         19.46717         5.47038         0.21286
C         20.73227         7.59334         0.05353
C         19.44744         8.26679        -0.19434
C         20.71492        10.50860        -0.07653
C         19.41587         9.78212        -0.23514
C         20.67784        11.94739         0.32741
C         19.36588        12.58627         0.64092
C         20.69334        14.78262         0.55860
C         19.38775        14.08431         0.71632
C         20.70021        16.16412         0.28647
C         19.39952        16.92840         0.33533
C         20.68858        18.93181        -0.46208
C         19.45748        18.27078        -0.34453
C         20.70016        20.35714        -0.74980
C         19.42809        21.06544        -0.81833
C         20.70241        23.15839        -0.56495
C         19.42241        22.46332        -0.94370
C         20.66444        24.65547        -0.74981
C         19.54212        25.32531        -1.07621
C         20.77904        27.53055        -0.80599
C         19.52018        26.82321        -1.22052
C         20.82519        28.88368        -1.05978
C         19.60235        29.67544        -0.77803
C         20.82968        31.79785        -1.00043
C         19.48445        31.10135        -1.29766
C         20.83439        33.27938        -0.91876
C         19.51460        33.98908        -1.01980
C         20.81864        36.07880        -0.32849
C         19.51791        35.45961        -0.68115
C         20.81076        37.38217         0.26919
C         19.58222        38.04101         0.53811
C         23.19019         6.18492         0.22460
C         21.95305         5.48909         0.24212
C         23.20361         7.61772         0.20969
C         21.95343         8.34071         0.11374
C         23.23727        10.54663         0.04743
C         21.95876         9.74720         0.09807
C         23.19639        11.86320         0.83887
C         21.89243        12.61712         0.90007
C         23.13290        14.84171         0.95992
C         21.88691        14.08791         0.80164
C         23.14737        16.24123         0.52152
C         21.94530        16.86816         0.18209
C         23.17073        18.91644        -0.50164
C         21.94122        18.26341        -0.23641
C         23.14381        20.27220        -1.08851
C         21.88546        21.01956        -0.98335
C         23.22867        23.18022        -0.97910
C         21.89863        22.50202        -1.27608
C         23.21641        24.62247        -0.58541
C         21.89514        25.32065        -0.17661
C         23.12807        27.49136        -0.26780
C         21.96282        26.79659        -0.46627
C         23.35203        28.80843        -0.95593
C         22.11043        29.58275        -1.32929
C         23.36866        31.82333        -1.01463
C         22.10940        31.08549        -1.33916
C         23.37955        33.29553        -1.00689
C         22.08951        34.07215        -1.27826
C         23.26046        36.09213        -0.30114
C         22.04722        35.43062        -0.57734
C         23.26912        37.40609         0.25163
C         22.04374        38.02210         0.55065
C         25.64537         6.15782         0.30159
C         24.42206         5.47906         0.21570
C         25.64087         7.57708         0.42616
C         24.44055         8.31075         0.31611
C         25.65016        10.46550         0.56732
C         24.48052         9.76116         0.38433
C         25.65899        11.91841         0.67420
C         24.47443        12.61793         0.86206
C         25.77393        14.86688         1.00636
C         24.46779        14.07176         1.13513
C         25.62935        16.11700         0.10424
C         24.45242        17.01358         0.55053
C         25.65258        18.98998        -0.45847
C         24.41864        18.30915        -0.24593
C         25.70135        20.36540        -0.85534
C         24.44457        21.03452        -1.26968
C         25.69847        23.22218        -1.59074
C         24.40225        22.52687        -1.19757
C         25.68042        24.75173        -1.40044
C         24.43569        25.43875        -0.91031
C         25.69867        27.55630        -0.37516
C         24.40990        26.95238        -0.83017
C         25.69306        28.93689        -0.11189
C         24.36233        29.65851        -0.16644
C         25.66650        31.84339        -0.15040
C         24.46363        31.10933        -0.61040
C         25.87009        33.21814        -0.76662
C         24.54842        33.97619        -0.80558
C         25.83757        36.19469        -0.42059
C         24.54396        35.45447        -0.67798
C         25.75324        37.49200         0.30441
C         24.51889        38.06191         0.54831
C         28.13449         6.11235         0.19019
C         26.90857         5.49296         0.07806
C         28.19900         7.47674         0.81350
C         26.88974         8.26453         0.79026
C         28.12103        10.46092         1.19106
C         26.97829         9.75128         0.46535
C         28.16152        11.92522         0.81052
C         26.93888        12.62450         0.66694
C         28.17211        14.72150         0.43141
C         26.95532        14.03108         0.56979
C         28.17270        16.18027         0.22664
C         26.93235        16.89782         0.06894
C         28.12573        19.01271        -0.32461
C         26.90235        18.28077        -0.20563
C         28.14609        20.40520        -0.53313
C         26.91519        21.10655        -0.81166
C         28.15536        23.23718        -0.97268
C         26.95188        22.53281        -1.05033
C         28.18961        24.70150        -0.93087
C         26.93098        25.46663        -1.01574
C         28.11153        27.51858        -0.17749
C         26.90684        26.84866        -0.46526
C         28.10889        28.88939         0.14553
C         26.89211        29.60773         0.17543
C         28.14466        31.81457         0.48695
C         26.85000        31.08238         0.36220
C         28.18600        33.26201         0.15271
C         27.06309        33.96123        -0.19882
C         28.26276        36.08520         0.37928
C         27.18675        35.45348        -0.48955
C         28.17992        37.47157         0.78456
C         26.96006        38.13186         0.73931
C         30.56318         5.73780        -0.16678
C         29.26600         5.52467        -0.53699
C         30.68635         7.66824         0.89691
C         29.44755         8.29775         0.85215
C         30.60986        10.45475         0.99313
C         29.43619         9.74737         0.92756
C         30.59868        11.90942         1.40824
C         29.37262        12.63266         0.87756
C         30.62635        14.80188         0.78728
C         29.38479        14.01140         0.59546
C         30.70455        16.11482         0.03303
C         29.38061        16.84941         0.09182
C         30.69375        19.02815        -0.16031
C         29.38572        18.25963        -0.28838
C         30.62019        20.49643        -0.12492
C         29.39332        21.13758        -0.45673
C         30.61275        23.25732        -0.58185
C         29.39173        22.54287        -0.65849
C         30.61011        24.64453        -1.17532
C         29.35896        25.39290        -0.79046
C         30.58768        27.63647        -0.54543
C         29.41597        26.75589        -0.13194
C         30.61412        28.93646        -0.16086
C         29.42423        29.51554         0.58618
C         30.67922        31.77328         0.10928
C         29.41905        31.04838         0.57142
C         30.66413        33.23351         0.46872
C         29.45788        33.93335         0.40823
C         30.51186        35.92597         1.50118
C         29.39292        35.35080         0.66250
C         30.52114        37.43459         1.56320
C         29.36600        38.12396         1.31132
C         32.88276         6.42351        -0.74388
C         31.81074         5.58827        -0.89521
C         32.97534         7.72856        -0.08051
C         31.90420         8.33691         0.62089
C         33.08893        10.55778         0.55741
C         31.94705         9.75839         1.09165
C         33.09007        11.96419         0.81283
C         31.91870        12.62966         1.14615
C         33.18535        14.86156         1.11065
C         31.89405        14.10311         1.20028
C         33.14860        16.28547         0.75463
C         31.90961        16.95056         0.43294
C         33.08208        19.10990         0.71859
C         31.88190        18.32327         0.35213
C         33.04414        20.60877         0.59237
C         31.79221        21.24490         0.10288
C         33.04435        23.40013         0.02339
C         31.79556        22.62348        -0.18322
C         33.08825        24.82995        -0.38904
C         31.88586        25.46396        -1.01043
C         33.11693        27.66519        -0.59757
C         31.85159        26.95596        -0.90597
C         33.11760        29.04112        -0.49800
C         31.83125        29.81226        -0.40716
C         33.18530        31.82913         0.35537
C         31.92166        31.00629         0.55743
C         33.15636        33.23473         0.75015
C         31.91071        33.88464         0.77953
C         33.08961        36.05691         1.53346
C         31.84544        35.33687         1.04142
C         32.90056        37.36978         2.19043
C         31.72169        38.04006         2.11532
C         34.10386         8.52335        -0.38792
C         35.28773        10.70463        -0.52403
C         34.18126         9.91309        -0.07632
C         35.43480        12.04254        -0.13866
C         34.48342        12.58565         0.90708
C         35.69487        14.85365         0.54621
C         34.50302        14.10385         0.97233
C         35.62212        16.26730         0.70852
C         34.36497        16.98315         0.71708
C         35.57035        19.14468         0.47514
C         34.38890        18.42078         0.63150
C         35.58720        20.60392         0.44128
C         34.33233        21.33349         0.43810
C         35.56063        23.45098         0.10138
C         34.33602        22.69577         0.17314
C         35.58575        24.81333        -0.19812
C         34.38643        25.53009        -0.49740
C         35.58695        27.67020        -0.63797
C         34.35073        26.93089        -0.58526
C         35.56172        29.11211        -0.59679
C         34.34844        29.78292        -0.44756
C         36.07690        32.11946         0.88988
C         34.29118        31.20444        -0.15941
C         35.56588        33.18525         1.62479
C         34.34035        33.90171         1.30572
C         34.24526        35.21014         1.77584
C         36.52074        12.82326        -0.55948
C         37.91942        14.82711        -0.67707
C         36.75506        14.17874        -0.16340
C         38.41823        16.05243        -0.18741
C         36.79347        17.05098         0.73102
C         38.04917        19.08225         0.11381
C         36.83802        18.43978         0.44077
C         38.00778        20.57373        -0.16189
C         36.79233        21.28536         0.37839
C         38.11156        23.48130         0.27630
C         36.80637        22.78344         0.63515
C         38.14813        24.80441        -0.01568
C         36.85209        25.60431         0.10519
C         38.70732        27.88543         0.33260
C         36.78840        26.97901        -0.53169
C         38.43745        29.13568         0.99107
C         37.44735        30.04222         0.57491
C         37.11520        31.23109         1.27620
C         39.27236        17.01292        -0.74177
C         40.41242        19.17205        -0.50480
C         39.24703        18.39512        -0.32451
C         40.48456        20.54638        -0.12480
C         39.31716        21.25739         0.10625
C         40.64750        23.37489         0.22012
C         39.36178        22.68250         0.60030
C         40.69006        24.70638         0.00300
C         39.47484        25.56648        -0.23062
C         39.51021        26.82549         0.63915
C         41.77696        21.21605        -0.02007
C         41.85160        22.55845         0.14748
O         28.83217        31.57684         1.78842
O         10.52600        21.02988         1.43737
O          5.82162        22.84840        -0.46514
O         19.21434        29.44257         0.58229
O         26.40478        25.45551        -2.43603
O         32.06899        26.27658        -2.21043
O         23.74032        14.52411         2.30361
O         30.73574         6.29064         1.11440
O         11.59349        12.73353        -1.19043
O         32.62216        36.10712         0.11013
O         30.72575        31.66241        -1.36525
O         37.95879        16.41157         1.11560
O         14.47538        26.63937        -2.22819
O         12.34071        22.70416        -2.34543
O          9.93290        17.63517         1.77846
O         32.89693        19.96381         1.91377
O         22.43031        11.93356         2.08086
O         14.87230        28.92649         1.74398
O         24.06601        27.94773        -1.99987
O         23.78583        20.40727        -2.42442
O         20.81930        11.63207        -1.09444
O         36.76988        29.80821        -0.64956
O         22.11420        30.33555        -2.58796
O         19.44625        34.96818        -2.10198
O         25.85076        31.64657         1.29338
O         32.82811        24.47050         1.02632
O         24.22223        24.91068         0.44701
O         19.39490         9.01324        -1.47832
O         15.72454        23.98739        -2.73182
O         34.03088        14.58074         2.27878
O         19.31272        13.26324         1.94518
O         30.26335        18.49728        -1.48074
O         12.23937        25.44220        -2.24311
O         31.02396        14.77023         2.18523
O         16.94684        24.92099         0.47332
O         11.03777        18.67477        -1.46137
O         37.90286        27.70166        -0.83933
O         35.47983        31.90553        -0.37143
O         31.61385        30.51075        -1.68962
O         10.14065        15.31150        -1.19840
O         20.91633        32.46330         0.29534
O         30.16574        35.42281         2.76669
O         25.21782        36.23055        -1.75168
O         12.35362        33.68161        -0.67599
O         27.41618         7.71423         2.03184
O         13.95738        18.72449         0.92529
O         20.75771        22.88671         0.82646
O         19.25383        31.07090        -2.66916
O          6.30928        25.38080        -1.34398
H          6.68053        26.09423        -1.90626
O         18.16060        24.73915        -2.94577
H         18.49278        25.62474        -3.22963
O         13.39859        14.36287        -2.01689
H         12.78734        13.63780        -2.29924
O         27.88736        10.41120         2.61250
H         28.62534        10.90742         3.04233
O         14.02947        14.45359         1.56623
H         14.83095        14.33743         2.13280
O         21.76895        25.20357         1.25010
H         21.41190        24.28250         1.43894
O         25.34917        15.62669        -1.22627
H         25.38996        16.38015        -1.85265
O         16.43579        33.47054         1.61470
H         15.93910        32.82008         2.17588
O         29.58823        29.10161         1.97536
H         29.16691        29.80275         2.52831
O         15.97058        14.06527        -1.59271
H         15.12512        14.14592        -2.11250
O         16.39660        33.87596        -2.02284
H         17.11847        34.04099        -2.66712
O         25.76353        22.99736        -3.02775
H         26.26359        23.75770        -3.40915
O         39.40486        22.56203         2.06439
H         38.47300        22.54496         2.39550
O         30.91314        15.75488        -1.36887
H         30.78780        16.58892        -1.88420
O         14.59516        22.67600         0.48710
H         15.37401        23.23312         0.72614
O         13.29222         7.41941         2.32979
H         12.54053         6.85427         2.60840
O         37.84994        20.66710        -1.64390
H         37.01763        20.20115        -1.87507
O         24.69075        17.40682         1.93114
H         23.94901        17.98133         2.21537
O          7.96801        23.29507        -1.91636
H          7.18847        23.89312        -2.05830
O         16.60769        14.23947         2.01312
H         17.38787        13.85824         2.48265
O         27.65825        35.54128        -1.86919
H         26.92978        35.94679        -2.39816
O         21.71454        22.66990        -2.70772
H         22.39468        22.12013        -3.15878
O         39.58377        25.90133        -1.63644
H         39.06232        26.71703        -1.81268
O         11.16161        11.88761         2.41863
H         10.54664        11.31658         2.92720
O         12.32175        26.26538         1.34218
H         12.69717        26.99521         1.88370
O         31.83697        30.57955         1.91622
H         31.75522        31.36883         2.49074
O         11.05263        31.32559         2.43660
H         10.20582        31.53849         2.88325
O         14.34789        20.91265        -2.74600
H         13.57057        21.44254        -3.04979
O          7.64829        21.92747         2.24871
H          8.44433        21.43800         2.55571
O         27.33940         9.81274        -0.95213
H         26.51943         9.74569        -1.48657
O         17.20121        16.47928        -2.09044
H         16.95566        15.52923        -2.23503
O         32.20818         9.70497         2.57097
H         33.15127         9.45537         2.68810
O         19.22509        17.27453         1.76135
H         19.17644        16.43783         2.27217
O         19.43560        27.06408        -2.68395
H         19.60580        28.01571        -2.86989
O         22.06140        34.31380        -2.70203
H         21.17255        34.68427        -2.92128
O         36.74806        25.89316         1.54757
H         36.67849        25.01851         2.00507
O         30.48101        24.36754        -2.60660
H         30.79455        25.17363        -3.08081
O         26.16731        15.29188         2.32347
H         25.34416        15.47340         2.83528
O         14.79413        31.35500         2.05617
H         14.88425        30.43311         2.46311
O          9.95526        14.29698         2.28710
H         10.56432        13.56638         2.57274
O         26.23656        32.93692        -2.15111
H         26.60483        33.76549        -2.53426
O         23.43325        10.95295        -1.35101
H         22.55250        11.25404        -1.68859
O         30.43247        11.87668         2.86634
H         31.11777        11.24986         3.20397
O         36.70533        22.95662         2.11805
H         35.87493        22.51336         2.40356
O         15.67900        38.06034        -1.33643
H         16.35439        37.58566        -1.86717
O         35.00296        12.11827         2.18499
H         34.66094        12.74033         2.86792
O         23.82788        29.72049         1.18231
H         24.40551        30.33635         1.69460
O         29.66909        26.42352         1.26996
H         29.67198        27.27321         1.78189
H          4.97189        18.67420         1.48459
H          4.02850        20.80682         2.31673
H          3.89813        23.22510         2.24038
H          5.81474        25.30788         1.93670
H          7.26650        14.25960         0.90432
H          6.10423        16.49512         1.11918
H          6.18519        27.55489         0.39641
H          7.45407        29.62457         0.42038
H          9.80305         9.76388         0.65329
H          8.57494        12.01431         1.19934
H          8.73313        31.71343         0.60569
H         10.39662        33.67271         2.05878
H         12.37365         5.47348         0.34162
H         11.06410         7.63932         0.56266
H         11.38507        36.13948         1.38206
H         12.66914        37.92423         1.52729
H         14.51313         4.30482         0.01072
H         14.70896        39.21535         1.13337
H         16.99514         4.31591         0.25605
H         17.16909        39.16997         0.90905
H         19.49192         4.37264         0.28174
H         19.61355        39.05992         0.95304
H         21.95667         4.39075         0.30258
H         22.03542        39.02789         0.99548
H         24.41102         4.38119         0.14695
H         24.47614        39.04042         1.04989
H         26.86952         4.47574        -0.34066
H         26.88499        39.15370         1.14064
H         29.03973         4.96528        -1.45746
H         29.31645        39.21022         1.48840
H         33.77471         6.17364        -1.34273
H         31.89627         4.76312        -1.61977
H         33.77298        37.83420         2.67471
H         31.65144        39.06301         2.51765
H         34.92547         8.07640        -0.96755
H         36.03912        10.24508        -1.18395
H         36.14413        33.55061         2.48812
H         35.06885        35.61536         2.38463
H         37.25940        12.35744        -1.23055
H         38.44846        14.33711        -1.50801
H         38.99851        29.36695         1.90720
H         37.63183        31.42566         2.22717
H         39.97174        16.73601        -1.54447
H         41.33360        18.67050        -0.83790
H         41.65730        25.18389        -0.22146
H         40.15112        26.84721         1.53068
H         42.68794        20.61113        -0.13329
H         42.82663        23.06840         0.14159
