         232
 CSIRO Nanostructure Databank - Neutral Graphene Oxide Data Set
C        -11.17816         0.41187         0.87305
C         -9.92245         1.20576         1.14223
C         -8.66388         0.45124         0.79410
C         -7.35402         1.17111         1.05306
C         -6.17708         0.55203         0.31845
C         -5.00457         1.33532         0.08417
C         -3.81936         0.70136        -0.56668
C         -2.48635         1.31465        -0.24822
C         -1.22936         0.62043        -0.67406
C         -0.00078         1.45624        -0.89098
C          1.28204         0.70536        -0.90307
C          2.54380         1.49285        -0.78236
C          3.74662         0.73356        -0.32311
C          4.94470         1.44423         0.20604
C          6.28050         0.71941         0.34172
C          7.53713         1.54713         0.12883
C          8.75397         0.86193         0.17220
C          9.97118         1.62595         0.63541
C         11.23358         0.79716         0.58174
C         -9.90010         2.58133         0.52943
C         -8.71069         3.32933         0.54393
C         -7.42780         2.66232         0.78078
C         -6.24167         3.36816         0.72945
C         -4.98381         2.69413         0.42546
C         -3.73847         3.45309         0.37129
C         -2.46826         2.76423         0.10524
C         -1.28461         3.45251         0.14057
C         -0.03561         2.89704        -0.45702
C          1.24238         3.64103        -0.30830
C          2.52886         2.96644        -0.54843
C          3.73022         3.68240        -0.04542
C          4.93323         2.93763         0.34144
C          6.25710         3.69969         0.38943
C          7.52114         2.96759         0.19566
C          8.71693         3.72698         0.01427
C         10.04483         2.98397        -0.10324
C         -8.72916         4.70273         0.23287
C         -7.62556         5.58413         0.73882
C         -6.28130         4.85493         0.81814
C         -5.01198         5.59746         0.59958
C         -3.75094         4.82166         0.50237
C         -2.53742         5.60594         0.94835
C         -1.23434         4.83703         0.67942
C          0.03003         5.60378         0.49787
C          1.25641         4.96496         0.00607
C          2.46247         5.78162        -0.02926
C          3.72941         5.06449        -0.00111
C          4.97395         5.81298         0.07299
C          6.21524         5.14345         0.12093
C          7.43279         5.85717        -0.04955
C          8.66945         5.11263        -0.07720
C         -7.51856         6.97903         0.15432
C         -6.34965         7.65688        -0.01343
C         -5.01172         6.95648        -0.08885
C         -3.82918         7.81950         0.43060
C         -2.55262         6.99757         0.31427
C         -1.39192         7.51878        -0.12902
C         -0.06563         7.08528         0.35171
C          1.15205         7.93308         0.14857
C          2.41548         7.16255        -0.02941
C          3.65751         7.89129        -0.34367
C          4.94615         7.21518        -0.12106
C          6.15203         7.95490        -0.18568
C          7.38340         7.26620        -0.16320
C         -6.31551         9.09093        -0.24205
C         -5.16355         9.82262        -0.25028
C         -3.82888         9.26965        -0.09296
C         -2.76093        10.14875        -0.14272
C         -1.37001         9.72996        -0.30870
C         -0.14291        10.18770         0.07888
C          1.11358         9.42017        -0.12679
C          2.30203        10.08328        -0.23823
C          3.60713         9.40029        -0.44990
C          4.89615        10.08907        -0.23347
C          6.07226         9.41015        -0.19526
C        -11.18433        -0.85484         0.43742
C         -9.93925        -1.55458        -0.04644
C         -8.68748        -0.85058         0.44203
C         -7.40806        -1.59069         0.32983
C         -6.19881        -0.79797        -0.00493
C         -5.14653        -1.44823        -0.72757
C         -3.87396        -0.72476        -1.06809
C         -2.52549        -1.48523        -1.09328
C         -1.30395        -0.65092        -1.52753
C          0.11362        -1.44540        -1.59002
C          1.29380        -0.66511        -1.00284
C          2.54683        -1.40812        -0.82982
C          3.84995        -0.64114        -0.94160
C          5.11017        -1.35847        -0.51729
C          6.27964        -0.63714        -0.33880
C          7.55124        -1.36247        -0.39240
C          8.84758        -0.56547        -0.13932
C         10.03980        -1.33851         0.26629
C         11.24066        -0.55427         0.51937
C         -9.92675        -3.05998         0.14324
C         -8.76341        -3.77320         0.03331
C         -7.46464        -3.05500         0.07785
C         -6.31304        -3.68779        -0.60617
C         -5.36510        -2.75303        -1.14416
C         -3.53099        -3.83518        -1.49536
C         -2.36997        -2.97315        -1.21599
C         -1.04877        -3.65694        -1.31759
C          0.09001        -2.92685        -1.19459
C          1.42911        -3.63492        -1.21215
C          2.57041        -2.76631        -0.71786
C          3.82018        -3.43344        -0.28392
C          5.12357        -2.77651        -0.43978
C          6.31799        -3.49587        -0.17377
C          7.55534        -2.80682        -0.17323
C          8.78394        -3.48367         0.11041
C         10.00132        -2.71116         0.30252
C         -8.64335        -5.20478        -0.06270
C         -7.42216        -5.83603        -0.31824
C         -6.22406        -5.07021        -0.65951
C         -4.98896        -5.84977        -1.15352
C         -3.67542        -5.08603        -1.01474
C         -2.38946        -5.82436        -0.85119
C         -1.08854        -5.15256        -1.18988
C          0.21668        -5.91346        -0.92824
C          1.40124        -5.03025        -0.60650
C          2.54305        -5.65008        -0.18661
C          3.80649        -4.89947         0.02137
C          5.08599        -5.62570        -0.01823
C          6.29430        -4.93965        -0.02472
C          7.55266        -5.63917         0.20220
C          8.75872        -4.86979         0.30356
C         -7.34536        -7.27078        -0.31539
C         -6.13567        -7.95490        -0.35557
C         -4.89240        -7.23084        -0.51549
C         -3.69898        -7.83884        -0.17428
C         -2.44952        -7.01864         0.06234
C         -1.14354        -7.76746         0.18212
C          0.04455        -7.08812         0.03169
C          1.28340        -7.68190         0.53354
C          2.56875        -7.05421         0.19916
C          3.75346        -7.75550         0.31904
C          5.03173        -7.08682        -0.03548
C          6.36474        -7.83155         0.22140
C          7.54864        -7.01267         0.44991
C         -6.07501        -9.36986        -0.08061
C         -4.88548        -9.98666         0.17180
C         -3.65069        -9.23852         0.19643
C         -2.44826        -9.85686         0.51486
C         -1.17341        -9.17753         0.53923
C          0.00560        -9.89397         0.70466
C          1.28302        -9.20880         0.87386
C          2.58549        -9.87684         0.80627
C          3.76273        -9.17136         0.64996
C          5.04908        -9.83321         0.85057
C          6.24480        -9.20657         0.74933
O         -7.16256        -2.55086         1.43593
O          5.51292         3.34608         1.61880
O         -4.76542         6.65591        -1.48684
H         -4.75741         7.50054        -1.98444
O          2.76749         2.40200        -1.91071
O         -5.54222         5.46148         1.96101
O         -2.64874        -6.41889         1.38945
H         -2.61508        -7.13927         2.05402
O         10.37654         2.79810        -1.48019
H          9.67351         2.26478        -1.90559
O         -1.67224         0.50518         0.70101
O         -4.02791         8.02295         1.84978
H         -3.74972         7.19597         2.32284
O         -0.31752         5.04292         1.82168
O         -1.82598        -5.94272        -2.20623
O          1.75602        -3.82570        -2.61952
H          1.39014        -3.00667        -3.07609
O         -9.91934        -1.37903        -1.51086
H        -10.10134        -0.43439        -1.70122
O         -0.20227         2.49862        -1.88747
O         -7.10974         1.04209         2.49754
H         -6.25688         1.48383         2.69941
O         -2.42207        -2.28069         0.11715
O          0.50860        -1.53012        -2.95242
O         -9.89682         1.44897         2.58743
H         -8.95122         1.42628         2.87636
O         -1.58085        -0.22904        -2.86111
H         -0.82565        -0.58421        -3.41442
O          9.77449         1.98171         2.03477
H          9.44511         1.19289         2.51399
O         -5.21319        -6.09465        -2.57131
H         -5.12029        -5.23177        -3.03225
O         -2.68876         5.72866         2.38890
H         -1.77583         5.68467         2.76789
O          3.60109         8.56684        -1.66640
O          4.03265        -0.42683        -2.37386
H          3.14810        -0.38753        -2.80093
O          0.60856        -6.58177        -2.16334
H         -0.21763        -6.71008        -2.68838
O          6.39680         0.31924         1.74541
H          5.47526         0.23188         2.09054
O         -8.05498         5.83873         2.12201
H         -7.22274         5.96462         2.64026
O          3.94901         0.81702         1.11726
O          3.69891        -3.93178         1.12636
O         -4.57912        -3.22143        -2.19862
O          0.51271         7.76929         1.50651
O          8.41315        -0.89158        -1.50423
O          1.22275        -8.15734         1.90362
O         -1.35726         8.54098        -1.07592
O         -4.02346         0.38415        -1.98889
O          5.78220        -7.69460        -1.12442
H         12.19249        -1.10030         0.61144
H         12.18090         1.33184         0.74869
H         10.85814         3.59927         0.35402
H          9.60925         5.67152        -0.20190
H          8.32249         7.83389        -0.24187
H          7.01464         9.96852        -0.08915
H          4.89093        11.18421        -0.12437
H          2.30232        11.18433        -0.27065
H         -0.05515        11.15897         0.58902
H         -2.99450        11.22427        -0.23626
H         -5.23590        10.90848        -0.42273
H         -7.27863         9.60979        -0.36628
H         -8.45987         7.55390         0.14386
H         -9.68423         5.17199        -0.05197
H        -10.84880         3.09585         0.30807
H        -12.12502         0.89266         1.16521
H        -12.14153        -1.38661         0.31566
H        -10.89552        -3.58308         0.16818
H         -9.54719        -5.82339         0.04914
H         -8.27170        -7.83714        -0.13307
H         -7.01603        -9.93814        -0.04164
H         -4.85227       -11.06225         0.39971
H         -2.45598       -10.93277         0.74823
H         -0.02040       -10.99390         0.72754
H          2.62057       -10.97251         0.90899
H          5.01951       -10.87668         1.19949
H          7.16895        -9.73555         1.02760
H          8.45467        -7.49389         0.84954
H          9.69686        -5.39682         0.53555
H         10.91653        -3.26417         0.56499
