         671
 CSIRO Nanostructure Databank - Neutral Graphene Oxide Data Set
C          6.04043        31.70657        -0.15988
C          5.85415        32.90603        -0.78766
C          8.51550        27.61683         1.00282
C          8.46467        29.02699         0.96498
C          7.27022        29.74781         0.61964
C          8.48922        31.84910         0.62050
C          7.23905        31.13048         0.46239
C          8.61247        33.22654         0.31652
C          6.80414        34.00760        -0.72682
C          8.46932        35.70117        -1.42691
C          7.20456        34.93947        -1.62879
C          8.51388        37.03115        -1.66639
C         11.07188        23.40461         1.30548
C         11.01791        24.82699         1.48067
C          9.82225        25.52357         1.22247
C         10.89697        27.70197         1.62405
C          9.72775        26.94512         1.27275
C         10.86637        29.09087         1.59331
C          9.67680        29.74907         1.17329
C         10.93922        31.79291         0.61192
C          9.69672        31.14965         0.86136
C         10.97211        33.02083        -0.05892
C          9.77745        33.75835        -0.24515
C         11.02789        35.71200        -1.12691
C          9.76353        34.88901        -1.28260
C         11.01567        37.12062        -1.33109
C          9.80179        37.75864        -1.96727
C         10.88313        40.00856        -1.59469
C          9.75632        39.25842        -1.83060
C         10.91948        41.43332        -1.71967
C         13.37727        19.08424         1.59687
C         13.35140        20.49442         1.76477
C         12.25527        21.26022         1.40235
C         13.43536        23.37495         2.01366
C         12.22314        22.68353         1.57211
C         13.41043        24.83703         2.16473
C         12.18519        25.51944         1.93240
C         13.29441        27.74081         2.57501
C         12.07220        26.97302         2.15994
C         13.34508        29.23837         2.33930
C         12.01605        29.99832         2.06027
C         13.48820        31.69549         0.63804
C         12.18121        31.04379         0.92535
C         13.49439        33.04494         0.04096
C         12.25572        33.54319        -0.66193
C         13.44785        35.76201        -0.80427
C         12.22814        35.04910        -0.82007
C         13.44027        37.18342        -1.02711
C         12.18297        37.85966        -1.18394
C         13.39061        40.05217        -1.53938
C         12.13867        39.35928        -1.05829
C         13.40328        41.42291        -1.66628
C         12.13405        42.15923        -1.68607
C         13.38233        44.30685        -1.68957
C         12.16149        43.56137        -1.76424
C         13.38691        45.69326        -1.62946
C         15.65093        14.82741         1.02719
C         15.69525        16.14897         1.49104
C         14.52595        16.92524         1.56084
C         15.78160        18.98515         2.22319
C         14.51551        18.30837         1.84543
C         15.81830        20.45708         2.18971
C         14.50862        21.14878         2.48104
C         15.79899        23.30769         2.85959
C         14.55585        22.64986         2.32305
C         15.84490        24.80831         2.60885
C         14.59796        25.52124         2.51202
C         15.89786        27.72785         2.53222
C         14.59330        26.98366         2.93781
C         15.84187        29.02339         1.77008
C         14.65384        29.90526         2.02357
C         15.97015        31.79446         0.83757
C         14.68551        31.35850         1.51805
C         15.94697        33.09232         0.26761
C         14.67956        33.74848        -0.02541
C         15.91371        35.75022        -0.77266
C         14.69733        35.09670        -0.55774
C         15.93084        37.09734        -1.44675
C         14.64403        37.86057        -1.25244
C         15.94147        39.99911        -1.78320
C         14.61609        39.26140        -1.68415
C         15.90036        41.46933        -1.69223
C         14.65707        42.16247        -1.72627
C         15.87937        44.29249        -1.62500
C         14.64471        43.57218        -1.65590
C         15.89161        45.71620        -1.62638
C         14.63162        46.44033        -1.23182
C         15.78559        48.56602        -1.90406
C         14.66413        47.90866        -1.56284
C         15.79060        50.05809        -2.13136
C         17.95556        10.69561        -0.36255
C         17.98298        12.07028        -0.06405
C         16.80704        12.76236         0.33583
C         18.10094        14.84024         0.66768
C         16.83352        14.11304         0.69743
C         18.18085        16.13062         1.14973
C         17.03642        16.68009         1.96671
C         18.31443        18.96159         1.83949
C         17.07292        18.20481         2.16708
C         18.31584        20.42121         2.08374
C         17.04563        21.14498         2.27550
C         18.32364        23.24851         2.67196
C         17.05496        22.54009         2.48639
C         18.30720        24.70067         2.32662
C         17.06220        25.46873         2.55109
C         18.40471        27.56477         1.85911
C         17.16307        26.93904         2.41000
C         18.41162        28.91294         1.48542
C         17.12642        29.62017         1.28130
C         18.40365        31.61690         0.54554
C         17.17047        31.05597         0.92932
C         18.38889        32.92425        -0.12688
C         17.14641        33.71848        -0.14436
C         18.38641        35.78944        -0.74471
C         17.15020        35.06888        -0.57841
C         18.40156        37.19180        -0.87044
C         17.17745        37.90810        -1.14848
C         18.35768        40.06797        -1.20512
C         17.17415        39.28780        -1.36038
C         18.36037        41.44995        -1.40180
C         17.12008        42.16646        -1.59411
C         18.34602        44.32011        -1.64237
C         17.11815        43.59114        -1.62425
C         18.32357        45.71480        -1.82533
C         17.09169        46.40469        -1.83119
C         18.31063        48.59908        -1.69611
C         17.08778        47.86534        -2.21982
C         18.24048        49.99913        -1.41247
C         17.00344        50.71883        -1.49814
C         18.10246        52.73490        -0.62747
C         16.94406        52.04347        -1.10887
C         18.03711        54.07149        -0.16015
C         20.25291         6.47510        -1.49766
C         20.25629         7.89012        -1.42432
C         19.09877         8.60926        -1.06327
C         20.33160        10.74403        -0.96008
C         19.11090        10.00673        -0.80662
C         20.39904        12.09933        -0.64689
C         19.22348        12.80805        -0.19041
C         20.46594        14.96128        -0.09651
C         19.26990        14.17288         0.12827
C         20.54927        16.26106         0.35665
C         19.51436        16.80603         1.31781
C         20.63494        19.17283         0.97706
C         19.41657        18.32906         1.33787
C         20.80937        20.29713         1.99831
C         19.52188        21.07564         2.15236
C         20.86760        23.25294         2.17691
C         19.61996        22.50476         2.49146
C         20.88104        24.63592         2.13325
C         19.60567        25.39438         2.06735
C         20.85524        27.54853         1.88668
C         19.63896        26.87260         1.98827
C         20.87142        28.91922         1.50731
C         19.64036        29.58916         1.23685
C         20.89343        31.62587         0.55578
C         19.64776        30.94341         0.74457
C         20.94529        32.97549         0.07960
C         19.70334        33.59372        -0.44199
C         20.93400        35.85387        -0.53453
C         19.66675        35.06293        -0.74046
C         20.81567        37.30684        -0.32924
C         19.62379        37.93282        -0.63317
C         20.87279        40.02772        -1.07039
C         19.55041        39.44226        -0.52730
C         20.83465        41.53222        -1.19010
C         19.59916        42.20776        -1.32098
C         20.81286        44.35690        -1.37465
C         19.59270        43.61419        -1.48772
C         20.82841        45.77083        -1.53849
C         19.60499        46.47560        -2.07176
C         20.74673        48.63616        -1.38467
C         19.52419        47.92308        -1.63003
C         20.71286        50.03247        -1.13602
C         19.42908        50.70083        -1.04365
C         20.57820        52.69976        -0.07854
C         19.34386        52.04500        -0.63351
C         20.48152        54.20306        -0.01448
C         19.21367        54.81287         0.16675
C         20.24383        56.73482         1.34000
C         19.11968        56.08815         0.80719
C         20.16600        57.75254         2.32035
C         22.68473         3.65214        -1.86618
C         21.46703         4.34904        -1.71921
C         22.63271         6.48445        -2.28871
C         21.41894         5.74887        -1.79560
C         22.68442         7.92452        -1.89642
C         21.51652         8.59104        -1.61096
C         22.83086        10.65639        -1.06228
C         21.52109        10.09794        -1.63317
C         22.83705        12.17339        -1.12199
C         21.63904        12.82695        -0.84516
C         22.92543        15.02498        -0.90373
C         21.59085        14.29817        -0.80860
C         22.99641        16.42370        -0.39055
C         21.76750        17.06616         0.17189
C         23.11502        19.00741         0.91365
C         21.91163        18.37865         0.85210
C         23.19576        20.50849         0.98991
C         22.01585        21.14522         1.68264
C         23.34438        23.22075         1.76715
C         22.07505        22.50461         1.90235
C         23.31188        24.65786         1.87418
C         22.12230        25.35515         2.01413
C         23.37634        27.56084         1.96059
C         22.11228        26.83942         2.34295
C         23.35331        28.95034         1.64055
C         22.11118        29.62793         1.37087
C         23.36073        31.69251         0.84421
C         22.12095        30.97752         0.93218
C         23.38840        33.05076         0.42432
C         22.15225        33.69768         0.06841
C         23.35735        35.82438        -0.19280
C         22.17986        35.12864        -0.17426
C         23.36777        37.30272        -0.12417
C         22.06988        38.05418        -0.03595
C         23.38495        40.18714        -0.60498
C         22.04735        39.58045        -0.17603
C         23.33098        41.47603        -1.40356
C         22.04599        42.24743        -1.19011
C         23.26816        44.37616        -0.73110
C         22.02581        43.64734        -1.14405
C         23.22804        45.84561        -1.03082
C         22.04674        46.50262        -1.36003
C         23.19526        48.72813        -1.35449
C         22.01117        47.97375        -1.39796
C         23.17369        50.15151        -1.30232
C         21.92548        50.77686        -1.09555
C         23.07028        53.02978        -0.63696
C         21.81683        52.22982        -0.82046
C         23.01098        54.29535         0.12125
C         21.69598        54.97439         0.10021
C         22.76941        56.77982         1.61061
C         21.58429        56.34272         0.88381
C         22.63453        57.75014         2.58734
C         21.32181        58.27850         2.92604
C         22.37597        59.83428         4.50232
C         21.23314        59.31443         3.89200
C         23.88656         4.32439        -2.02350
C         25.12861         6.43516        -2.17868
C         23.93242         5.74729        -2.12860
C         25.20679         7.87655        -2.20673
C         23.95813         8.63293        -1.98353
C         25.36034        10.62610        -1.51937
C         24.02350         9.96400        -1.68102
C         25.29466        12.13255        -1.65587
C         24.08419        12.87105        -1.21625
C         25.43450        14.92871        -0.85876
C         24.17144        14.25020        -0.99721
C         25.53794        16.23957        -0.39762
C         24.31969        16.90755         0.10260
C         25.65674        19.02624         0.52169
C         24.39194        18.27196         0.71837
C         25.70772        20.38940         0.81569
C         24.52931        21.00907         1.54818
C         25.81882        23.18962         1.50675
C         24.54878        22.52529         1.59380
C         25.88552        24.59998         1.97035
C         24.59713        25.36775         2.04937
C         25.81137        27.51130         1.72886
C         24.61186        26.84940         1.93420
C         25.83884        28.99125         1.97625
C         24.57061        29.66809         1.53625
C         25.82482        31.76123         1.12491
C         24.58843        31.03730         1.18196
C         25.82802        33.10815         0.68349
C         24.63359        33.74022         0.31842
C         25.88356        35.95507         0.05829
C         24.67818        35.11005        -0.32051
C         25.88588        37.32761        -0.23025
C         24.60628        37.91409        -0.76811
C         25.87310        40.07369        -1.36964
C         24.65273        39.43041        -0.72047
C         25.85135        41.59779        -1.24204
C         24.60407        42.25899        -1.25719
C         25.77561        44.51707        -1.42390
C         24.51794        43.72342        -1.31223
C         25.78152        45.91281        -0.91495
C         24.45617        46.61845        -0.63463
C         25.77088        48.73718        -1.17641
C         24.48411        48.00070        -1.26172
C         25.83420        50.24503        -1.36444
C         24.45112        50.94102        -1.32939
C         25.54824        52.95023        -0.10013
C         24.40325        52.38367        -0.86166
C         25.38915        54.10515         0.64306
C         24.13768        54.84987         0.66624
C         25.23476        56.62444         2.11273
C         24.12928        56.30281         1.13054
C         25.07086        57.74987         2.98241
C         23.81184        58.29527         3.25178
C         23.64453        59.34380         4.19468
C         26.41247         8.52388        -2.30655
C         27.79474        10.69126        -2.10225
C         26.46000        10.02995        -2.42375
C         27.87691        12.00950        -1.76288
C         26.62214        12.81188        -1.64854
C         28.00386        14.79626        -0.82185
C         26.67745        14.13438        -0.97283
C         28.03408        16.27009        -0.65587
C         26.78378        16.95363        -0.29755
C         27.97993        19.13072        -0.49081
C         26.78923        18.32774        -0.00429
C         28.04952        20.55205         0.03620
C         26.90119        21.16508         0.57529
C         28.08941        23.39925         0.44179
C         26.93588        22.55835         0.95569
C         28.32241        24.67911         1.18786
C         27.20838        25.37367         1.92941
C         28.32075        27.54914         1.45709
C         27.04428        26.77210         1.28510
C         28.32227        28.92939         1.47117
C         27.09024        29.67615         1.51740
C         28.32141        31.78478         1.32909
C         27.07660        31.05585         1.34052
C         28.20343        33.28583         1.45646
C         27.16044        33.79621         0.43876
C         28.26780        36.06831         0.45578
C         27.08954        35.31286         0.40097
C         28.29914        37.43924         0.08662
C         27.08739        38.09121        -0.27481
C         28.32536        40.15884        -0.81950
C         27.13468        39.45011        -0.78058
C         28.33509        41.49844        -1.57811
C         27.06104        42.29425        -1.32899
C         28.29838        44.45230        -1.06399
C         27.09220        43.77549        -1.70020
C         28.24227        45.89414        -0.67915
C         26.93717        46.59392        -0.70322
C         28.19994        48.79484        -0.51120
C         26.88323        48.06632        -0.37212
C         28.15312        50.18824        -0.38229
C         26.89493        50.89535        -0.48570
C         27.98653        52.88476         0.47621
C         26.79990        52.20674        -0.04937
C         27.83825        54.08825         1.15282
C         26.47272        54.47858         1.63168
C         26.37561        55.87285         2.17410
C         29.13849        12.73603        -1.60102
C         30.54141        14.74959        -0.99261
C         29.21772        14.04735        -1.24105
C         30.46401        16.26250        -1.29877
C         29.22269        16.93207        -0.73631
C         30.50229        19.10038        -0.74861
C         29.29164        18.35832        -0.23083
C         30.51004        20.57602        -0.55500
C         29.28432        21.27116        -0.08585
C         30.61962        23.34237         0.14191
C         29.36581        22.62971         0.20296
C         30.68464        24.68808         0.51880
C         29.51019        25.34952         1.03984
C         30.67749        27.53632         0.66824
C         29.63650        26.78834         1.51204
C         30.73560        29.00219         1.01478
C         29.58193        29.67130         1.32406
C         30.78528        31.86759         1.29056
C         29.53621        31.13015         1.36261
C         30.79974        33.23228         1.18338
C         29.53958        34.00567         1.30387
C         30.79932        35.95707         0.20226
C         29.54159        35.41468         0.83232
C         30.79598        37.46791         0.15019
C         29.55278        38.14999        -0.00676
C         30.79304        40.21684        -0.39492
C         29.55564        39.52333        -0.39025
C         30.83167        41.64260        -0.80151
C         29.63835        42.32123        -1.38603
C         30.79157        44.57224        -0.74799
C         29.64121        43.86956        -1.47183
C         30.73086        45.99983        -0.60078
C         29.49353        46.68367        -0.62090
C         30.66650        48.84143        -0.31616
C         29.43976        48.09306        -0.49155
C         30.60110        50.23919        -0.10972
C         29.36615        50.92652        -0.09891
C         29.26181        52.27793         0.28759
C         31.74372        16.98469        -0.94578
C         33.00349        19.10082        -0.71577
C         31.78778        18.34897        -0.78365
C         33.03856        20.50092        -0.61710
C         31.80770        21.27341        -0.46299
C         33.08336        23.39925        -0.55759
C         31.83395        22.62519        -0.21352
C         33.20309        24.74205         0.10468
C         32.01750        25.34960         0.79839
C         33.22478        27.55184         0.67200
C         32.00742        26.84532         0.67759
C         33.24868        28.95023         0.80002
C         31.98231        29.75192         0.62365
C         33.29394        31.87094         1.03118
C         32.06421        31.07680         1.39920
C         33.30168        33.23772         1.06143
C         32.04309        33.98585         1.08093
C         33.27501        36.16741         0.96262
C         32.03347        35.33353         0.81319
C         33.29801        37.34729        -0.02756
C         32.00905        38.14184         0.03718
C         33.27564        40.26980        -0.08207
C         32.01509        39.55383        -0.13885
C         33.23102        41.73284         0.08598
C         31.94652        42.45205        -0.22591
C         33.18777        44.62577        -0.12687
C         31.96905        43.91203        -0.42849
C         33.16163        46.02705        -0.15023
C         31.94403        46.73495        -0.33249
C         31.89034        48.14028        -0.22865
C         34.28188        21.18700        -0.55748
C         35.57111        23.28008        -0.43374
C         34.36016        22.59028        -0.45795
C         35.61639        24.71814        -0.36939
C         34.38582        25.42432         0.02001
C         35.63413        27.55044         0.12691
C         34.47325        26.83859         0.36818
C         35.75023        28.95118         0.47017
C         34.55174        29.66610         1.07079
C         35.79821        31.85171         0.80474
C         34.50963        31.11312         0.55523
C         35.80287        33.21086         0.89604
C         34.55438        33.98152         0.90385
C         35.79540        36.13615         0.84286
C         34.54356        35.35004         0.86013
C         35.75641        37.55137         0.41138
C         34.55615        38.17683         0.14023
C         35.73656        40.37771         0.15075
C         34.49942        39.61374         0.03143
C         35.70260        41.79010         0.13055
C         34.48711        42.51191         0.08695
C         34.41506        43.90699         0.06070
C         36.77798        25.42334        -0.56615
C         38.06786        27.60943        -0.51481
C         36.74624        26.91932        -0.68018
C         38.13040        28.95296        -0.18265
C         36.93942        29.63151         0.33407
C         38.20768        31.79188         0.16944
C         37.09309        31.04408         0.87355
C         38.12995        33.23778         0.09672
C         37.15024        33.90818         1.03647
C         38.32143        36.15951         0.41030
C         37.11009        35.42380         0.87492
C         38.24642        37.57543         0.39555
C         37.01378        38.27914         0.39405
C         36.96289        39.68262         0.26242
C         39.32836        29.70419        -0.40058
C         40.50965        31.88010        -0.71801
C         39.32906        31.11342        -0.33993
C         40.56242        33.23461        -0.66025
C         39.37542        34.04415        -0.34470
C         39.46566        35.44834         0.05062
O         24.43009        17.06996         1.56660
O         15.30873        39.45868        -2.99608
O         22.47405         6.52598        -3.84667
O         30.70166        41.80763        -2.27562
O         22.26341        53.11808        -1.87167
O         12.28969        27.39438         3.57088
O         12.96436        30.62108        -0.24294
O         25.24734        24.82965         3.28281
O         19.02689        32.81516        -1.47156
O         11.62787        30.70730         3.18684
O         24.87088        44.36217        -2.59331
O         16.47239        18.51573         3.46490
O         19.11063        22.85109         3.84616
O         24.53171        37.50456        -2.13104
O         38.21144        33.80178        -1.24015
O         16.82636        27.72325         3.64611
O         24.53583        52.06098        -2.27939
O         29.67858        35.12670         2.26811
O         22.83130        37.71858         1.18740
O         14.17587        29.83117         3.39589
O         24.33294        40.12186         0.52149
O         30.30522        19.94811        -1.92338
O         36.57261        36.01153         2.11262
O         18.77363        24.88383         0.92967
O         22.21935        17.31951        -1.24246
O         16.18655        28.87867         0.36593
O         27.36898        14.10163         0.32884
O          7.50331        34.04147         0.49980
O         28.20307        44.76857         0.33876
O         25.82868        12.76589        -2.88564
O         22.04236        14.90801        -2.05867
O         21.72377        56.27592        -0.56555
O         25.38850        48.06248        -2.40683
O         20.50555        35.43098        -1.88470
O         32.26870        42.10507         1.15625
O         32.92419        23.70579        -1.99144
H         32.82360        22.85307        -2.46629
O         24.86225        34.89298        -1.75914
H         24.75629        35.81544        -2.16897
O         29.49495        18.27302         1.20745
H         28.78709        17.70604         1.58203
O         36.39027        27.19965        -2.09865
H         36.24774        28.16774        -2.17499
O         14.56320        32.22506         2.67053
H         14.02648        31.73210         3.34150
O         25.86610        29.13996         3.45987
H         24.98436        28.86314         3.79146
O         22.91077        10.31905         0.36413
H         22.14409        10.73685         0.81351
O         17.25834        16.10960         3.30334
H         16.77657        16.70256         3.93072
O         30.10617        26.78695         2.88797
H         29.36702        26.40283         3.42435
O         17.22526        47.89263        -3.68139
H         18.06887        47.41917        -3.90031
O         24.41990        57.08142        -0.07189
H         23.64535        56.96942        -0.67327
O         14.61210        26.90234         4.37763
H         14.45069        27.80449         4.72924
O         28.29009        41.12158        -2.99101
H         29.22708        41.02886        -3.28449
O         33.35166        36.74244        -1.36318
H         33.43414        37.46723        -2.01902
O         14.61686        46.40187         0.25299
H         14.59562        45.45732         0.51821
O         10.00056        37.52812        -3.41321
H          9.95874        36.55629        -3.55811
O         25.82010        39.81817        -2.79163
H         26.66491        40.15757        -3.18098
O         23.12102        20.96192        -0.39349
H         22.22558        20.71420        -0.72738
O         31.85917        30.00407        -0.81021
H         32.73368        30.35876        -1.12240
O         27.31569        43.80961        -3.12360
H         26.42828        43.74830        -3.54929
O         27.68507        33.55308         2.77741
H         28.18096        34.33266         3.12441
O         30.34488        16.33990        -2.75871
H         30.30060        17.28826        -3.00782
O         15.97060        36.80637        -2.89067
H         15.87285        37.67670        -3.35279
O         26.51675        48.23839         1.03028
H         26.96684        47.54253         1.55316
O         12.10909        39.58824         0.39978
H         11.95345        40.54687         0.54061
O         20.40883        19.79756        -0.32188
H         20.48157        19.09702        -1.00702
O         32.24005        25.12059         2.24737
H         31.54947        25.65578         2.72463
O         34.39104        31.00364        -0.91235
H         34.45249        31.90930        -1.28630
O         26.38453        50.42799        -2.69266
H         26.03037        51.28327        -3.03370
O         20.75459        52.22126         1.30292
H         19.90505        52.35293         1.77512
O         26.21636        53.62530         2.82599
H         26.41854        52.69914         2.57051
O         34.72401        29.75021         2.50717
H         34.75008        28.84048         2.86932
O         21.83922        40.13368         1.14878
H         22.59192        39.79609         1.69069
O         24.34200        46.79068         0.80730
H         24.17272        45.89251         1.18472
O         19.74553        46.52874        -3.54929
H         20.63054        46.90444        -3.74906
O         21.05394        39.46352        -2.38147
H         21.81087        39.93550        -2.81872
O         25.76129        10.37398        -0.13984
H         24.94303        10.35067         0.40945
O         21.44723        10.47623        -3.04047
H         21.53261         9.66562        -3.58861
O          9.87852        34.21352        -2.57439
H         10.73120        33.70336        -2.57817
O         12.31468        32.97053        -2.02326
H         12.48005        32.00487        -1.90930
O         26.15739        10.30156        -3.81483
H         26.09591        11.28411        -3.91282
O         27.60412        33.38862        -0.88113
H         26.94439        33.72845        -1.52788
O         37.65299        33.65627         2.38017
H         37.24781        34.34700         2.95661
O         31.58810        14.17869        -1.76915
H         31.48231        14.53018        -2.68030
O         27.66029        25.56991         3.29199
H         26.85055        25.53498         3.85974
O         27.76165        19.22262        -1.92470
H         28.51385        19.74733        -2.29715
O         33.24649        36.77534         2.28182
H         33.17291        36.06323         2.95071
O         27.64318        23.83142        -0.90473
H         27.29247        24.75391        -0.82420
O         29.85042        44.21942        -2.85602
H         30.46465        43.55203        -3.23513
O         15.82761        50.31395        -3.54672
H         16.40462        49.62374        -3.95250
O         19.98455        16.42909         2.65877
H         19.18131        16.34041         3.23057
O         21.07920        19.65554         3.27310
H         21.19536        20.35240         3.95239
O         37.45000        30.90477         2.27812
H         37.57646        31.82117         2.63138
O         21.32221         7.32769        -4.15147
H         20.58862         6.66699        -4.20240
O         14.26486        20.91578         3.92807
H         13.34313        21.19578         4.11648
O         23.39316        44.21833         0.73405
H         22.49166        44.25740         1.11945
O         15.75281        23.18059         4.31822
H         15.42720        22.26705         4.52028
O         26.87502        26.50522        -0.15630
H         27.17316        27.29625        -0.65500
O         24.59605        20.55188         2.92807
H         25.42590        20.88966         3.32476
O         22.05451        26.88916         3.81803
H         22.79743        26.34748         4.16168
O         30.20791        27.48779        -0.71931
H         30.73091        28.15800        -1.21835
O         32.18759        30.68237         2.79553
H         32.31081        31.49107         3.33455
O         19.30379        39.77035         0.86459
H         20.16905        39.78472         1.34678
O         23.26784        41.04057        -2.81343
H         24.11453        40.55784        -3.02230
O         30.79798        35.51423        -1.18942
H         31.65347        35.81889        -1.58073
H          5.22309        30.97483        -0.27960
H          4.93511        33.04011        -1.38006
H          7.60863        27.03011         0.79370
H          6.36079        29.16429         0.40710
H          6.67601        35.06949        -2.58557
H          7.57775        37.56982        -1.88352
H         10.16720        22.87987         0.96481
H          8.92997        24.94729         0.93413
H          8.82991        39.76467        -2.14702
H          9.98353        41.97399        -1.92895
H         12.47545        18.58690         1.20716
H         11.37571        20.76814         0.95958
H         11.21074        44.11351        -1.81392
H         12.42945        46.23691        -1.64114
H         14.67420        14.35383         0.84289
H         13.57725        16.45709         1.25389
H         13.73879        48.47833        -1.37564
H         14.85371        50.52150        -1.72644
H         17.01049        10.14243        -0.25366
H         15.85507        12.21204         0.37795
H         15.99132        52.58964        -1.17720
H         17.05790        54.56510        -0.07921
H         19.33300         5.92880        -1.23645
H         18.15873         8.05598        -0.91519
H         18.11876        56.46006         1.07262
H         19.17850        58.12661         2.62867
H         22.68469         2.55672        -1.77798
H         20.55198         3.79168        -1.46972
H         22.27333        60.64336         5.23902
H         20.24308        59.71635         4.15103
H         24.83317         3.76434        -2.01618
H         26.07242         5.86713        -2.17226
H         25.93965        58.09484         3.56470
H         24.53257        59.76594         4.68638
H         27.33661         7.93962        -2.44086
H         28.71894        10.10932        -2.24792
H         28.72183        54.61794         1.53920
H         27.17532        56.18044         2.86789
H         30.07195        12.19149        -1.81267
H         30.80536        14.61315         0.09125
H         31.52714        50.79292         0.10643
H         30.16655        52.83300         0.57705
H         32.68180        16.41192        -1.01372
H         33.95689        18.55368        -0.77223
H         34.08886        46.59194         0.02648
H         32.81649        48.70023        -0.03024
H         35.21232        20.59877        -0.58011
H         36.51803        22.72333        -0.51074
H         36.65180        42.34489         0.17656
H         35.34630        44.48855         0.13719
H         37.71286        24.89411        -0.80640
H         38.96487        27.11157        -0.91534
H         39.16915        38.14615         0.20941
H         37.90067        40.25775         0.28118
H         40.22286        29.17816        -0.76592
H         41.41351        31.31340        -0.98763
H         41.51417        33.75767        -0.83763
H         40.41816        35.97940        -0.09682
