         470
 CSIRO Nanostructure Databank - Neutral Graphene Oxide Data Set
C         37.54664        49.77498        -1.13312
C         36.56377        50.32878        -1.88890
C         37.79485        52.43050        -2.09653
C         36.68170        51.67826        -2.36445
C         40.06087        48.33001        -0.24701
C         40.01236        49.82727        -0.30139
C         38.75803        50.53969        -0.79787
C         40.11556        52.59735        -1.20441
C         38.91099        51.89591        -1.37016
C         40.16949        54.03512        -1.44449
C         42.21295        48.57099         0.85208
C         41.13160        47.69669         0.25842
C         42.42195        49.71205        -0.15696
C         41.32730        50.49748        -0.52523
C         42.53151        52.71590        -0.89276
C         41.35780        51.91558        -0.89305
C         42.50801        54.21190        -0.59929
C         41.24379        54.80455        -1.16577
C         44.82326        45.89172         1.95568
C         43.62736        46.48588         1.68788
C         44.87303        48.57602         1.05649
C         43.53756        47.91044         1.31821
C         44.89397        49.71053         0.11061
C         43.74803        50.05028        -0.54272
C         45.00862        52.78563        -0.63094
C         43.82124        52.16157        -1.01411
C         45.04852        54.20637        -0.84133
C         43.80590        54.88009        -1.05610
C         44.99140        56.53884        -2.34313
C         43.81026        56.09450        -1.74483
C         47.41504        44.45329         2.23822
C         47.36242        45.82913         1.88900
C         46.11177        46.53423         1.76550
C         47.36577        48.47089         0.89288
C         46.14110        47.83219         1.22704
C         47.31585        49.64292        -0.04136
C         46.11737        50.56263         0.09083
C         47.55792        52.72552        -0.24858
C         46.21417        52.04629        -0.19722
C         47.65297        53.96396        -1.17610
C         46.30172        54.73435        -1.26882
C         48.20252        56.88569        -2.24124
C         46.17712        55.82010        -2.14634
C         48.30183        58.23556        -2.58973
C         49.78889        44.35980         1.70132
C         48.59400        43.74147         2.13984
C         49.81608        45.76478         1.52627
C         48.59521        46.50479         1.61640
C         49.84313        48.65814         1.23669
C         48.59794        47.89186         1.24676
C         49.85875        50.08907         1.05762
C         48.75730        50.96188         1.22972
C         49.97177        52.87724         0.22018
C         48.66906        52.22037         0.41187
C         49.99173        54.26234        -0.24128
C         48.88299        54.86366        -0.84776
C         50.13374        57.05280        -0.82966
C         49.02656        56.25025        -1.28153
C         50.24422        58.44717        -1.16510
C         49.28005        59.03149        -2.01013
C         52.27619        41.45901         1.30717
C         51.12413        42.12437         1.61905
C         52.23519        44.29737         0.87844
C         50.93502        43.53252         1.26176
C         52.23876        45.75125         1.09001
C         51.06230        46.48001         1.27840
C         52.30418        48.65938         1.07233
C         51.06021        47.93971         1.28364
C         52.34956        49.99403         0.75155
C         51.17278        50.83345         1.09537
C         52.44433        52.89480         0.46431
C         51.15609        52.21709         0.50506
C         52.35972        54.35651         0.53994
C         51.20515        55.00453         0.02660
C         52.43740        57.14213         0.02555
C         51.22320        56.41825        -0.16756
C         52.50115        58.56406        -0.19446
C         51.38954        59.21891        -0.72932
C         52.51622        61.38838        -0.48357
C         51.47024        60.65804        -0.92487
C         54.77352        39.91187         0.64538
C         54.72783        41.39691         0.39364
C         53.47589        42.13909         0.88211
C         54.77502        44.23804         0.76089
C         53.48450        43.51825         0.87158
C         54.81513        45.72319         0.87870
C         53.54159        46.42515         1.22003
C         54.85284        48.60801         0.98705
C         53.56774        47.91729         1.21881
C         54.84966        49.94290         0.68656
C         53.59017        50.63864         0.18847
C         54.94420        52.78914         0.20608
C         53.62856        52.16137         0.31768
C         55.14789        54.14792        -0.39645
C         53.44508        55.16738         0.99235
C         54.89642        57.13373         0.03294
C         53.59258        56.49280         0.51020
C         54.91132        58.62543         0.30777
C         53.71870        59.29458         0.13931
C         54.97486        61.48437         0.11532
C         53.64011        60.79211         0.33302
C         55.02600        62.86923        -0.03202
C         57.23546        39.91425         0.65798
C         55.94766        39.24023         0.68488
C         57.22729        41.34194         0.89233
C         56.02376        42.04176         0.85131
C         57.29314        44.22012         1.39815
C         55.98610        43.46520         1.16153
C         57.33652        45.70660         1.25909
C         56.07882        46.45572         1.18062
C         57.36779        48.56474         1.44541
C         56.07436        47.83159         1.18338
C         57.40526        49.95179         0.84605
C         56.13245        50.65699         0.54242
C         57.34078        52.85065         0.99621
C         56.11929        52.12282         0.47489
C         57.40741        54.30849         0.61847
C         56.25694        54.95708         0.20617
C         57.42441        57.17711         0.72430
C         56.13232        56.39199         0.48101
C         57.40094        58.63133         0.46346
C         56.18250        59.32823         0.36160
C         57.44200        61.43858         0.00291
C         56.19360        60.75323         0.15797
C         57.46225        62.85901        -0.19563
C         56.24269        63.54474        -0.19243
C         59.61337        37.11710        -0.09136
C         58.47303        37.82713         0.08096
C         59.69335        39.95334         0.50515
C         58.44937        39.23628         0.44333
C         59.73714        41.31307         0.84238
C         58.49368        42.05040         1.03936
C         59.78618        44.16286         1.07772
C         58.50982        43.43231         1.20056
C         59.82056        45.64759         1.10815
C         58.53632        46.36326         1.21258
C         59.86333        48.53476         1.38911
C         58.59892        47.83570         0.91332
C         59.85522        49.99323         1.39472
C         58.65906        50.70190         1.11314
C         59.86514        52.80694         1.15753
C         58.65722        52.09795         0.99876
C         59.88547        54.23488         0.74981
C         58.63419        55.03224         0.77968
C         59.92560        57.14196         0.46554
C         58.68292        56.42103         0.65308
C         59.87291        58.53789         0.28588
C         58.64813        59.29899         0.28069
C         59.92019        61.42175        -0.05192
C         58.66417        60.70502         0.04387
C         59.94891        62.86841        -0.21112
C         58.73345        63.56547        -0.35791
C         59.98754        65.61075        -0.83475
C         58.78590        64.95213        -0.66429
C         62.45108        35.64938         0.34169
C         62.17759        36.91150        -0.22087
C         60.94715        37.70886         0.13841
C         62.17375        40.06920         0.06763
C         60.97934        39.21187         0.35572
C         62.21413        41.40469         0.63756
C         61.01268        41.98944         1.00185
C         62.28150        44.16854         1.60962
C         61.01258        43.40467         1.43965
C         62.24729        45.66435         1.58744
C         61.07953        46.36434         1.45751
C         62.28436        48.53068         1.80582
C         61.03540        47.82348         1.57978
C         62.24383        49.98852         2.10170
C         61.03713        50.73261         1.67158
C         62.30901        52.92038         1.76454
C         61.05879        52.13404         1.51798
C         62.39260        54.27041         1.18599
C         61.18809        54.95611         0.70888
C         62.41507        57.07444         0.45055
C         61.18848        56.43015         0.54920
C         62.41633        58.47616         0.00606
C         61.11144        59.25165        -0.05543
C         62.36695        61.45124         0.25033
C         61.11252        60.72762        -0.03242
C         62.43612        62.91673         0.03653
C         61.20091        63.57041        -0.28891
C         62.50114        65.61581        -0.81250
C         61.22819        64.94666        -0.64311
C         62.56910        66.89860        -1.42752
C         64.81250        35.80563        -0.32022
C         63.71051        35.06966         0.17822
C         64.58557        37.15433        -0.72867
C         63.24427        37.53381        -0.87816
C         64.43929        40.47743        -1.03236
C         63.15458        39.75273        -0.81529
C         64.56837        41.65410        -0.09834
C         63.47658        42.13331         0.60256
C         64.79323        44.28377         0.99632
C         63.56785        43.45444         1.27713
C         64.67340        45.77460         1.04003
C         63.55361        46.36205         1.88248
C         64.74068        48.58233         1.72395
C         63.48158        47.86207         1.71970
C         64.77749        49.90025         2.24415
C         63.53293        50.70715         2.44322
C         64.88978        52.92866         2.04527
C         63.57736        52.23388         2.28112
C         64.95874        54.20777         1.31383
C         63.66778        54.92884         0.95486
C         64.88195        57.07061         0.79051
C         63.68044        56.39917         0.73014
C         64.97551        58.49659         0.39536
C         63.71377        59.21492         0.03231
C         64.93582        61.47020         0.44877
C         63.65349        60.68476         0.33504
C         64.90791        62.97688         0.51078
C         63.64083        63.63673         0.09661
C         64.96904        65.69519        -0.52008
C         63.70728        64.98613        -0.39857
C         64.98778        66.98085        -1.13818
C         63.77066        67.54100        -1.61395
C         67.48087        33.16533        -0.86300
C         66.33957        33.78082        -0.44229
C         67.07569        35.96257        -1.27634
C         66.08733        35.18399        -0.66688
C         67.09781        37.41433        -1.07827
C         65.71665        38.11671        -0.81002
C         66.90365        40.27811        -1.05844
C         65.68868        39.58633        -0.99081
C         66.96003        41.71388        -0.77338
C         65.83112        42.35924        -0.19023
C         67.09663        44.44997         0.02172
C         65.91360        43.70703         0.22219
C         67.13873        45.91705         0.28024
C         65.88649        46.59900         0.76069
C         67.19885        48.63516         1.47538
C         65.94883        47.96972         1.33027
C         67.27408        49.92426         2.12576
C         66.03229        50.39070         2.60899
C         67.40523        52.95515         2.24255
C         66.07898        52.48609         2.58067
C         67.38074        54.36871         1.90801
C         66.20211        54.99021         1.53364
C         67.37725        57.27639         1.46402
C         66.10837        56.45531         1.36374
C         67.45623        58.64302         0.90239
C         66.14107        59.38246         0.88259
C         67.46097        61.50432         0.20505
C         66.18010        60.68682         0.05632
C         67.46315        62.99504         0.23850
C         66.21192        63.78537         0.60011
C         67.41334        65.84689        -0.02432
C         66.20481        65.12438        -0.07881
C         67.33802        67.23097        -0.44650
C         66.21592        67.73738        -1.16164
C         67.52466        69.74795        -1.72520
C         66.35126        69.01088        -1.78934
C         70.43429        32.60045        -1.11210
C         69.76047        33.37515        -2.04990
C         68.37860        33.80705        -1.82289
C         69.30419        36.16171        -2.48916
C         68.14827        35.35172        -2.04428
C         69.27496        37.57961        -2.31379
C         68.16870        38.22499        -1.65889
C         69.26892        40.41190        -1.85539
C         68.12518        39.61651        -1.48370
C         69.33688        41.78839        -1.48425
C         68.18686        42.42513        -0.85733
C         69.56688        44.46327        -0.30517
C         68.25401        43.78536        -0.42907
C         69.71414        45.85865         0.15714
C         68.46092        46.62416         0.46778
C         69.51292        48.45070         1.86286
C         68.40902        47.91004         1.22478
C         69.66066        49.81968         2.22761
C         68.52305        50.67843         2.31248
C         69.87356        52.93918         2.33606
C         68.58713        52.16818         2.36737
C         69.90701        54.33751         2.01390
C         68.64970        55.10973         2.03186
C         69.93292        57.24694         1.36335
C         68.67144        56.59254         1.76889
C         69.93099        58.61680         0.99104
C         68.65503        59.29810         0.79734
C         69.96676        61.55028         0.69662
C         68.67178        60.78294         0.69654
C         69.94587        62.99127         0.31021
C         68.75244        63.72675         0.34640
C         69.97044        65.78621         0.00775
C         68.70906        65.16328         0.18956
C         70.17602        67.17445         0.16530
C         68.35940        68.16206        -0.15607
C         69.87486        70.04319        -0.74643
C         68.58801        69.34337        -0.87229
C         69.89601        71.43580        -0.97493
C         72.50271        32.73638        -2.40326
C         71.79034        32.28212        -1.26156
C         71.90339        33.52082        -3.34649
C         70.48350        33.99757        -3.22969
C         71.46664        36.34271        -3.56516
C         70.41598        35.53832        -3.08125
C         71.43436        37.72238        -3.43314
C         70.35935        38.37173        -2.78589
C         71.45638        40.60807        -2.91892
C         70.36270        39.80053        -2.53225
C         71.53282        41.93588        -2.53310
C         70.51036        42.52581        -1.76537
C         71.85172        44.70370        -1.42656
C         70.74946        43.81341        -1.06899
C         72.00322        45.88891        -0.77729
C         70.98350        46.43836         0.08228
C         72.11227        48.70405         0.68032
C         71.29108        47.62849         0.86963
C         72.13295        49.76806         1.66511
C         71.05261        50.19561         2.39931
C         72.32394        53.16837         2.70709
C         71.12939        52.43816         2.76943
C         72.33225        54.46436         2.22189
C         71.11169        55.09206         1.90521
C         72.33590        57.20093         1.23165
C         71.12833        56.51175         1.50223
C         72.35003        58.55335         0.92090
C         71.16122        59.31234         0.81049
C         72.33863        61.41965         0.12495
C         71.20588        60.75222         0.54434
C         72.33469        62.81843        -0.15619
C         71.19001        63.59248        -0.07175
C         72.38095        65.78158        -0.71195
C         71.11270        65.00690        -0.58023
C         72.39423        67.14145        -0.75157
C         71.23194        67.91510        -0.37097
C         72.30993        70.13607        -0.51511
C         71.12202        69.36721        -0.50578
C         72.29432        71.50905        -0.71725
C         71.07777        72.16567        -0.94942
O         54.87323        45.07780        -0.44321
O         56.97815        50.05652        -0.54655
O         66.03890        51.45178         3.51749
O         67.58258        62.28001        -1.05487
O         68.69372        56.08791         3.14231
O         64.90545        62.15236         1.72652
O         64.58128        58.69890        -1.00146
O         45.96260        51.54115         1.19806
O         44.16598        48.79780         2.33063
O         56.54386        56.74126         1.83800
O         53.64051        47.15794         2.49359
O         54.54285        54.46972        -1.40799
O         43.90278        50.90850        -1.63258
O         69.21335        67.86905         0.91558
O         39.11686        50.47060         0.64177
O         64.80283        46.41985        -0.24903
O         61.55205        43.63298         2.78264
O         70.60614        47.61592         2.10902
O         64.61448        43.60672         2.28462
O         62.86033        60.90961         1.54511
O         70.67468        64.73741        -2.08779
O         47.95826        49.64931        -1.08555
O         64.49765        54.18670        -0.08125
O         61.14453        38.27357         1.48910
O         62.97530        38.66239        -1.67136
O         62.70937        52.92754         3.22054
O         59.93955        44.91210        -0.19274
O         71.26826        51.19048         3.37030
O         56.44932        43.78384         2.52024
O         47.26289        56.15236        -2.97081
O         67.69728        34.34176        -3.00199
O         62.64984        50.26193         3.50651
O         70.56514        43.62087         0.36831
O         66.46042        57.19822         2.61570
O         67.71672        46.70056        -0.81809
O         60.59995        54.33344        -0.54660
O         51.28469        43.83227        -0.12454
O         66.68473        37.80430         0.25536
O         61.73865        58.69081        -1.27821
O         69.21420        61.32831         1.94877
O         47.88652        53.43189        -2.50524
H         47.91539        54.19771        -3.12291
O         69.82292        33.66696        -4.47763
H         68.86819        33.89366        -4.36205
O         70.45321        66.00683        -2.71244
H         69.46969        66.10260        -2.69453
O         41.62987        49.15809         2.03794
H         42.37652        49.50114         2.58114
O         57.02445        52.92806         2.44910
H         57.77286        53.37987         2.89589
O         65.86516        59.77461         2.23972
H         65.98559        58.97726         2.81175
O         51.35837        51.10497         2.55982
H         50.49629        51.40804         2.91984
O         57.53078        48.67918         2.88010
H         56.65717        48.85912         3.28635
O         58.59250        47.93874        -0.53169
H         59.20894        47.26779        -0.89494
O         66.10987        60.36367        -1.33787
H         66.52390        61.10389        -1.84013
O         53.29089        61.03270         1.73885
H         52.44767        60.56399         1.91395
O         54.66382        41.54834        -1.06574
H         55.43718        41.08376        -1.44930
O         54.91549        57.02006        -1.41809
H         54.00850        57.16639        -1.75966
O         54.29559        54.65775         1.91756
H         54.95262        55.32645         2.20749
O         64.37982        41.03747        -2.38694
H         64.04414        40.32834        -2.97674
O         47.98088        50.70580         2.30031
H         47.17208        51.27869         2.31986
O         66.40781        64.11938         2.00331
H         66.06580        63.36071         2.53358
O         53.56829        50.36744        -1.25436
H         54.42310        50.66712        -1.63206
O         63.90811        46.11394         3.26715
H         63.12908        46.30383         3.83036
O         42.45460        54.36199         0.85398
H         41.64183        53.91237         1.16876
H         37.42821        48.76377        -0.72039
H         35.65490        49.75799        -2.12473
H         37.84938        53.45120        -2.49853
H         35.86049        52.10651        -2.95532
H         39.20981        47.75432        -0.64054
H         39.25062        54.53469        -1.78270
H         41.18827        46.59846         0.29280
H         41.15521        55.89660        -1.25824
H         44.81084        44.83855         2.27016
H         42.70051        45.89881         1.76714
H         44.99131        57.40838        -3.01239
H         42.88111        56.65416        -1.91452
H         46.49848        43.92083         2.52438
H         47.60856        58.64655        -3.33442
H         48.58444        42.66089         2.33966
H         49.34193        60.08995        -2.29111
H         52.33025        40.38051         1.51480
H         50.31095        41.58479         2.12599
H         52.49928        62.47805        -0.63043
H         50.64896        61.17545        -1.44027
H         53.83274        39.34286         0.63356
H         54.10148        63.46197        -0.01317
H         55.92884        38.14351         0.76298
H         56.21769        64.63666        -0.30477
H         59.56168        36.07183        -0.43045
H         57.51323        37.32406        -0.10226
H         59.96895        66.67898        -1.08892
H         57.85581        65.52038        -0.79810
H         61.66103        35.10286         0.87491
H         61.65024        67.38047        -1.78672
H         63.86174        34.03808         0.52346
H         63.77853        68.52433        -2.10283
H         67.72224        32.15273        -0.50904
H         65.64873        33.22441         0.20650
H         67.61242        70.67369        -2.31133
H         65.52296        69.40197        -2.39559
H         69.88671        32.21350        -0.23924
H         68.94593        71.95889        -1.15476
H         73.54723        32.41981        -2.53849
H         72.29367        31.65633        -0.51325
H         72.45355        33.79055        -4.25934
H         72.33399        35.87499        -4.04975
H         72.27911        38.30376        -3.82496
H         72.29237        40.17826        -3.48535
H         72.43130        42.51318        -2.78931
H         72.56826        44.40678        -2.20441
H         72.88660        46.51426        -0.97323
H         72.79437        48.75739        -0.17983
H         73.08060        50.31050         1.80779
H         73.24904        52.69308         3.05701
H         73.28300        55.00801         2.16739
H         73.30009        56.67921         1.28987
H         73.32221        59.04384         0.77472
H         73.28100        60.87470        -0.02655
H         73.27896        63.27141        -0.48785
H         73.29692        65.23063        -0.96745
H         73.32376        67.66645        -1.01629
H         73.27022        69.63578        -0.32619
H         73.23337        72.07899        -0.69364
H         71.05775        73.25240        -1.10957
