         324
 CSIRO Nanostructure Databank - Neutral Graphene Oxide Data Set
C          1.39664         3.61895        -2.07471
C          0.15910         4.21900        -2.03798
C          1.11184         6.25024        -1.07016
C          0.01522         5.53752        -1.54956
C          0.93757         7.61524        -0.50456
C         -0.22393         8.44529        -0.85273
C          0.95618        10.51976        -0.24254
C         -0.23551         9.77978        -0.59839
C          0.94849        11.95132        -0.23828
C         -0.26251        12.71485        -0.14175
C          0.92180        14.84529        -0.39401
C         -0.26170        14.09074        -0.13036
C          0.98575        16.25102        -0.35252
C         -0.17912        17.02597        -0.03951
C          1.06540        19.13887        -0.07977
C         -0.13832        18.38470         0.10996
C          1.09074        20.52943         0.18880
C          0.05867        21.22422         0.88683
C          1.41485        23.26799         1.09031
C          0.20824        22.53116         1.30668
C          1.63749        24.60223         1.72752
C          1.10394        24.86335         3.08151
C          2.46460        26.88659         3.24731
C          1.43588        26.01556         3.73713
C          2.51486        28.23615         3.60201
C          3.80967         3.68051        -1.70736
C          2.56840         4.32212        -1.64427
C          3.55676         6.36125        -0.62174
C          2.41703         5.66213        -1.11214
C          3.49837         7.70122        -0.18070
C          2.20044         8.38232        -0.08315
C          3.42551        10.56457        -0.07973
C          2.19146         9.85029        -0.12624
C          3.42348        11.97815        -0.25615
C          2.18068        12.63991        -0.35128
C          3.43508        14.79087        -0.93224
C          2.12936        14.06458        -0.71330
C          3.40672        16.26250        -0.86038
C          2.23726        16.95603        -0.60547
C          3.46163        19.09268        -0.66860
C          2.25785        18.42469        -0.49772
C          3.53421        20.55754        -0.58757
C          2.27275        21.32000        -0.17247
C          3.70193        23.36081         0.13547
C          2.44427        22.67479         0.37182
C          3.63786        24.86815         0.09526
C          2.79869        25.42729         1.25986
C          4.62821        27.22423         1.83587
C          3.50892        26.24712         2.35408
C          4.39522        28.70840         2.07718
C          3.41291        29.13077         3.01909
C          6.32982         3.66999        -1.23694
C          5.05038         4.36848        -1.40656
C          5.97105         6.25635         0.10688
C          4.89830         5.77134        -0.81051
C          5.86294         7.70368         0.54397
C          4.66664         8.45732         0.12477
C          5.89296        10.61515         0.37215
C          4.66128         9.86553         0.14676
C          5.89634        12.05286         0.12092
C          4.67974        12.71820        -0.27261
C          5.91991        14.83510        -0.58185
C          4.69655        14.08870        -0.59231
C          5.94387        16.22362        -0.91325
C          4.66582        16.90489        -1.39396
C          5.98476        19.11932        -1.17949
C          4.67017        18.41359        -1.19155
C          6.11283        20.46702        -0.53946
C          4.84262        21.20735        -0.24733
C          6.16461        23.38772        -0.16506
C          4.85883        22.68347        -0.13631
C          6.15165        24.87262        -0.19619
C          4.98934        25.53701         0.05050
C          6.20451        27.74887        -0.03800
C          4.91402        27.01629         0.31050
C          6.31706        29.15400         0.54799
C          5.22694        29.60532         1.44351
C          8.73782         3.71293        -0.74570
C          7.44892         4.29272        -0.68575
C          8.52750         6.29304         0.56433
C          7.28768         5.53503         0.11925
C          8.42606         7.75439         0.95491
C          7.08673         8.47597         0.93141
C          8.31204        10.68000         1.02845
C          7.06108         9.94861         0.74214
C          8.33789        12.18533         0.70643
C          7.09626        12.79451         0.18234
C          8.38175        14.85816        -0.32475
C          7.13228        14.16064        -0.22789
C          8.39098        16.18861        -0.78890
C          7.17933        16.90032        -1.02243
C          8.41772        19.05926        -1.35410
C          7.24297        18.33925        -1.24412
C          8.44063        20.52243        -1.33406
C          7.36290        21.20499        -0.84162
C          8.59837        23.42669        -1.03436
C          7.42125        22.65541        -0.55135
C          8.54947        24.87274        -0.87670
C          7.41872        25.56519        -0.42900
C          8.65122        27.72179        -0.39173
C          7.44385        27.00542        -0.31174
C          8.73879        29.10177         0.06183
C          7.64310        29.72956         0.66127
C         11.19780         3.75304        -0.42059
C          9.91063         4.39796        -0.31575
C         11.04201         6.45492         0.55805
C          9.82706         5.71838         0.16956
C         10.87852         7.94027         0.51500
C          9.64849         8.58555         0.81357
C         10.86676        10.76811         1.30336
C          9.60349         9.97347         0.97322
C         10.86215        12.19368         0.73591
C          9.64420        12.84822         0.43939
C         10.86421        14.91764        -0.10336
C          9.62958        14.18566        -0.02784
C         10.88717        16.26831        -0.51287
C          9.67163        16.86283        -1.05435
C         10.94920        19.12826        -1.16282
C          9.70477        18.34454        -1.39008
C         10.95375        20.50020        -1.71772
C          9.62447        21.26171        -1.94205
C         10.93323        23.47465        -1.90709
C          9.69172        22.74597        -1.53322
C         10.95836        24.97539        -1.80510
C          9.70347        25.67951        -1.32731
C         11.06747        27.72875        -0.94612
C          9.83952        27.06451        -0.84861
C         11.13596        29.11494        -0.52611
C          9.99360        29.75674        -0.01769
C         13.61261         3.56330        -0.06501
C         12.37724         4.28154         0.09370
C         13.66234         6.39092         0.79913
C         12.34238         5.67836         0.65966
C         13.84783         7.75067         0.40479
C         11.95450         8.81232         0.21920
C         13.42091        10.70060         0.94071
C         12.10063        10.06593         0.77547
C         13.41915        12.23769         0.81563
C         12.09971        12.88509         0.53746
C         13.35592        14.94586        -0.11892
C         12.08958        14.23323         0.17461
C         13.35891        16.43191         0.01396
C         12.05988        17.12523        -0.27108
C         13.36184        19.29258        -0.54039
C         12.10678        18.54521        -0.70066
C         13.38922        20.64061        -0.90669
C         12.26391        21.24491        -1.63905
C         13.51130        23.48231        -1.66342
C         12.25111        22.73209        -1.86965
C         13.49139        24.93287        -1.97529
C         12.24242        25.68519        -1.70003
C         13.54446        27.75835        -1.30906
C         12.27910        27.04151        -1.36487
C         13.55736        29.14453        -0.94536
C         12.36323        29.80370        -0.58433
C         16.12647         3.61667         0.37313
C         14.77711         3.82553         0.68975
C         16.01197         6.46021         1.66315
C         14.69156         5.82099         1.50162
C         16.01812         7.96729         1.51303
C         14.80230         8.58676         0.94752
C         15.93128        10.74807         0.86967
C         14.73410        10.01698         0.81622
C         15.91681        12.18069         0.63055
C         14.69971        12.85240         0.44988
C         15.91527        15.05869         0.02269
C         14.66572        14.23621        -0.05906
C         15.81099        16.52047         0.23561
C         14.63478        17.18876         0.00101
C         15.81185        19.33691        -0.02443
C         14.58427        18.63808        -0.09420
C         15.84151        20.80255        -0.19651
C         14.56113        21.48828        -0.64026
C         15.94817        23.53423        -1.21441
C         14.65122        22.85464        -1.22259
C         16.01512        24.88268        -1.55319
C         14.80903        25.66816        -1.89071
C         15.99684        27.81894        -1.41229
C         14.78316        27.11255        -1.54692
C         15.99354        29.20631        -1.12208
C         14.78744        29.85247        -0.90070
C         18.53620         3.73182         0.73017
C         17.25704         4.36269         0.88494
C         18.46729         6.47378         1.38621
C         17.25057         5.71467         1.35647
C         18.49497         7.92187         1.34089
C         17.26909         8.67696         1.21999
C         18.44819        10.77884         0.69999
C         17.19664        10.03530         0.92429
C         18.40168        12.25943         0.73821
C         17.18044        12.89203         0.56225
C         18.37808        15.14064         0.72455
C         17.19333        14.35285         0.30503
C         18.29339        16.51038         0.82529
C         16.97639        17.26625         0.83526
C         18.25055        19.41002         0.33167
C         17.03942        18.68992         0.31261
C         18.33718        20.73926        -0.18119
C         17.13335        21.46952        -0.48136
C         18.49137        23.39295        -1.35284
C         17.16254        22.78700        -0.93146
C         18.53055        24.89884        -1.23031
C         17.29767        25.60443        -1.60727
C         18.52527        27.79869        -1.10434
C         17.29566        27.12262        -1.58403
C         18.50525        29.18760        -0.86693
C         17.27300        30.00630        -1.16459
C         19.70887         4.37720         1.03001
C         20.93106         6.49425         1.40095
C         19.71330         5.77819         1.30243
C         20.93924         7.87916         1.41611
C         19.73292         8.60542         1.29818
C         20.89929        10.91370         1.32613
C         19.75951        10.05463         0.95933
C         20.83536        12.26628         1.23857
C         19.63192        13.00579         0.90402
C         20.80168        15.20256         1.18379
C         19.61827        14.41643         0.92528
C         20.75183        16.55128         1.32426
C         19.48402        17.28401         1.21056
C         20.74013        19.50032         0.77607
C         19.46280        18.79385         0.93342
C         20.79801        20.71557         0.19142
C         19.61226        21.40575        -0.27765
C         20.90836        23.47582        -0.69511
C         19.69175        22.72540        -0.73372
C         20.92581        24.83682        -0.83526
C         19.70582        25.59109        -1.01615
C         20.86542        27.74101        -0.45331
C         19.71200        27.05390        -0.88632
C         20.84394        29.11525        -0.23731
C         19.66684        29.83986        -0.43850
O          9.82309        17.35306        -2.45692
O          1.31364         7.75237         0.90298
O         17.44352        26.40982        -2.85309
O          7.69756         8.03101         2.18160
O          7.11059        22.91371         0.87267
O          5.27450         5.64186        -2.19785
O         16.82625        14.70493        -1.09457
O         16.01940         7.35168         2.84481
O          2.72269        21.23798        -1.57555
O         13.44880        11.58076         2.11415
O         19.26957        10.28210        -0.41557
O          7.81225         5.38542         1.46714
O          5.58017        20.51566         0.82550
O         12.54136        16.90395         1.12888
O          1.47055        25.81715         0.85266
O          2.67904        14.26294        -2.07450
O         14.57307         4.50745         1.92081
O          5.49396         6.59475         1.42979
O         14.20375        25.33602        -3.19214
O         12.99056         8.27455        -0.56093
O          5.17854        19.11762        -2.40578
O         13.97621        14.43606        -1.35397
O         11.53994         5.89054         1.86401
O         11.58685        23.03949        -3.14283
O          5.94826        28.90167        -0.89184
O         11.86673        20.53792        -2.86525
O         14.98580        21.50668         0.77418
O          8.21348        11.69889         2.08980
O         10.01328        25.55830        -2.76407
O         19.23943        18.26603         2.29653
O          9.37522        21.27277        -3.36274
H         10.22042        21.54631        -3.79450
O         10.91170        10.86010         2.75016
H         10.04729        11.23194         3.03932
O         17.40525        30.58169        -2.48192
H         17.45616        29.84782        -3.12934
O         18.59273        23.11887        -2.80363
H         17.99392        23.74517        -3.26607
O          5.87217        26.90454         2.51222
H          5.86568        27.34262         3.38931
O          4.62803        16.63829        -2.82233
H          4.92514        17.46448        -3.27416
O         16.64474        17.37913         2.26723
H         17.41210        17.84088         2.68896
O          4.15450        25.22253         3.15725
H          5.13031        25.36086         3.08563
O          3.81356        27.59354        -0.39783
H          4.18772        28.31224        -0.96386
O          2.96790        25.17464        -1.14750
H          2.18589        25.73395        -0.92865
H          1.50788         2.59461        -2.45780
H         -0.73084         3.67365        -2.38083
H         -0.98938         5.98013        -1.51466
H         -1.10584         7.97561        -1.31092
H         -1.14583        10.35035        -0.82978
H         -1.21268        12.18729         0.01736
H         -1.21286        14.61025         0.04771
H         -1.14018        16.51500         0.10286
H         -1.06718        18.91431         0.36030
H         -0.87617        20.70216         1.13295
H         -0.61394        23.01247         1.85453
H          0.34688        24.18245         3.49656
H          0.88846        26.30625         4.64766
H          1.75637        28.62476         4.29820
H          3.84657         2.60557        -1.93881
H          3.34328        30.20199         3.25652
H          6.43621         2.66704        -1.67665
H          5.13256        30.68154         1.65657
H          8.84969         2.72530        -1.21660
H          7.78320        30.66925         1.21535
H         11.21836         2.73680        -0.84326
H         10.07187        30.80189         0.31577
H         13.65761         2.79129        -0.84953
H         12.40377        30.85974        -0.27997
H         16.36445         2.86471        -0.39623
H         14.77577        30.92815        -0.67222
H         18.55931         2.67956         0.41187
H         17.20661        30.86621        -0.45086
H         20.66841         3.84424         0.96565
H         21.88022         5.93962         1.38895
H         21.90032         8.41176         1.42178
H         21.82641        10.44409         1.68548
H         21.73702        12.83455         1.50419
H         21.77353        14.70287         1.29037
H         21.66689        17.10382         1.57599
H         21.65548        19.03802         1.16808
H         21.77652        21.20247         0.09347
H         21.85921        22.96765        -0.48550
H         21.88775        25.36152        -0.77745
H         21.80022        27.19595        -0.26997
H         21.75514        29.62990         0.09714
H         19.64911        30.92628        -0.27356
