         317
 CSIRO Nanostructure Databank - Neutral Graphene Oxide Data Set
C         30.40586        31.68956         0.75829
C         30.41242        32.90221         0.50554
C         30.45682        36.10254         0.61664
C         30.48912        37.32966         0.82883
C         30.62791        40.53553         0.99482
C         30.53497        41.78024         0.91995
C         32.89906        28.89066         1.10505
C         31.78038        29.42696         1.11008
C         32.79895        31.54089         0.50267
C         31.55985        30.90709         1.31112
C         32.79193        33.11675         0.52493
C         31.47641        33.77409        -0.10010
C         32.73961        35.96195         0.18846
C         31.54284        35.24484         0.25557
C         32.83487        37.42737         0.35595
C         31.60145        38.20920         0.63744
C         32.87041        40.31582         0.13551
C         31.62446        39.58214         0.66738
C         32.97280        41.81406         0.41998
C         31.72442        42.64225         0.83478
C         32.72161        44.38934        -0.49582
C         31.81558        43.96517         0.21853
C         35.06782        28.35489         2.87243
C         35.41801        28.83469         1.62430
C         34.29028        29.14169         0.70790
C         35.38047        31.60074         0.38272
C         34.14505        31.01749         1.06186
C         35.33990        33.16903         0.38059
C         34.01427        33.69414        -0.25424
C         35.27375        35.97623        -0.21971
C         33.97535        35.23682        -0.23867
C         35.33912        37.36415         0.37651
C         34.04064        38.11202         0.28410
C         35.37937        40.31209        -0.05543
C         34.15536        39.60994         0.58323
C         35.29479        41.72101        -0.47279
C         34.11648        42.42681        -0.33017
C         35.14221        44.57715        -1.09110
C         33.89809        43.74706        -1.14581
C         35.43350        45.85151        -0.91397
C         37.61402        27.44864         0.53790
C         34.74831        28.03930         4.04601
C         37.81452        28.90498         0.67376
C         36.75430        29.57286         1.52571
C         37.92015        31.80690         0.83427
C         36.63942        31.07411         1.09540
C         37.88124        33.28241         0.37308
C         36.58277        33.73637        -0.34827
C         37.72438        35.95330        -0.40198
C         36.56145        35.24775        -0.29498
C         37.72058        37.40843        -0.31273
C         36.55735        38.12823        -0.09914
C         37.73935        40.10746        -1.00914
C         36.52506        39.57161        -0.26827
C         37.82511        41.62258        -1.37942
C         36.36592        42.27945        -1.43387
C         37.63972        44.56177        -0.66329
C         36.51509        43.87618        -1.48257
C         37.68044        46.09374        -0.88030
C         36.45605        46.71306        -0.93663
C         40.01564        24.51507         0.40144
C         39.00240        25.26999         0.50590
C         40.12396        27.26954         0.15655
C         38.84694        26.65075         0.37777
C         40.07614        28.71899        -0.29924
C         38.98812        29.51882         0.39167
C         40.10537        31.54963        -0.43682
C         39.23328        31.00060         0.71601
C         40.22346        33.06016        -0.46537
C         39.06263        33.77333        -0.39567
C         40.23912        35.91037        -0.33200
C         38.97850        35.21379        -0.83850
C         40.25655        37.41608        -0.66602
C         39.02905        38.11372        -0.06282
C         40.17721        40.27682        -0.24926
C         39.02083        39.57664        -0.42087
C         40.23993        41.72182        -0.41472
C         38.86919        42.38175        -0.50270
C         40.20050        44.58996        -0.34107
C         38.99294        43.88017        -0.96941
C         40.21319        46.09534        -0.37968
C         38.99700        46.79213        -1.05604
C         40.14805        48.83763        -0.27528
C         39.13172        48.20019        -0.53849
C         42.59228        24.49989        -0.04218
C         41.28310        25.06107         0.13951
C         42.62779        27.16952        -0.25859
C         41.31274        26.50294         0.08220
C         42.64633        28.63387        -0.59457
C         41.40532        29.44667        -0.40518
C         42.67982        31.52863        -0.96712
C         41.42158        30.80201        -0.50600
C         42.67688        33.02558        -0.73175
C         41.50589        33.71755        -0.65313
C         42.79273        35.97930        -0.75103
C         41.51109        35.20686        -0.76619
C         42.83068        37.51367        -0.73483
C         41.54151        38.07165        -0.12364
C         42.59921        40.20439         0.61371
C         41.53429        39.60476        -0.30443
C         42.58540        41.72665         0.46376
C         41.40803        42.39944        -0.16898
C         42.69996        44.63231         0.13703
C         41.54445        43.87781        -0.50560
C         42.65184        46.04419         0.20539
C         41.50787        46.79484        -0.21596
C         42.54526        48.85563         0.68479
C         41.56677        48.38250        -0.38104
C         43.69511        25.02000        -0.28871
C         45.20112        27.15595        -0.31043
C         43.95017        26.44972         0.16022
C         45.19851        28.69846        -0.12749
C         43.97896        29.38382        -0.79007
C         45.24360        31.55445        -0.63212
C         43.91723        30.86584        -0.29685
C         45.25540        33.02625        -0.80415
C         43.97107        33.73906        -0.52742
C         45.31377        35.97814        -0.38441
C         44.03776        35.23582        -0.41993
C         45.20002        37.31300         0.34506
C         43.99670        38.17300        -0.00281
C         45.24485        40.29318         0.45553
C         43.94712        39.49219         0.35146
C         45.09611        41.66115         1.12872
C         43.85499        42.46168         0.74432
C         45.18161        44.62924         1.00088
C         43.96186        43.91007         0.37854
C         44.92524        46.08010         1.27303
C         43.80458        46.73362         0.82070
C         43.50639        48.12185         0.95927
C         47.66156        27.27237        -0.27863
C         46.50613        26.71546        -0.32308
C         47.78557        28.75839         0.11862
C         46.53470        29.39681        -0.53798
C         47.80557        31.65978        -0.44832
C         46.51644        30.90882        -0.06547
C         47.79522        33.01716        -0.64431
C         46.54414        33.84214        -0.89520
C         47.85230        35.90599        -0.16634
C         46.53439        35.12964        -0.04745
C         47.76044        37.38730         0.04707
C         46.48144        38.11502         0.28616
C         47.69288        40.29216         0.98635
C         46.42259        39.46373         1.03688
C         47.67229        41.59365         1.80752
C         46.30992        42.37352         1.66113
C         47.04175        44.54419         2.67854
C         46.22908        43.87819         1.77798
C         46.78219        45.95847         2.85062
C         45.92164        46.54711         2.16737
C         51.49627        29.66076         2.00986
C         49.00821        29.48548        -0.40575
C         50.33282        31.57190        -0.91146
C         49.04089        30.86624        -0.49918
C         50.30737        33.06526        -0.44001
C         49.06553        33.82275        -0.89689
C         50.36302        35.93685        -0.01623
C         49.04290        35.24065        -0.27247
C         50.30448        37.43504         0.20159
C         48.98071        38.09207         0.52857
C         50.26548        40.26117         0.92689
C         48.95556        39.54790         0.89919
C         50.19935        41.50732         1.76287
C         48.96137        42.41820         1.54207
C         50.29044        44.32862         2.44753
C         49.11822        43.63333         2.48090
C         51.56604        30.27182         0.91056
C         52.74129        31.66892        -0.77858
C         51.58714        30.98484        -0.25584
C         52.74262        32.92052        -0.86103
C         51.71208        33.94825        -1.13333
C         52.56959        36.38111        -0.86565
C         51.79603        35.21827        -0.30652
C         52.54068        37.59210        -0.63145
C         51.32341        38.42952        -0.41095
C         52.64008        40.44650         0.60290
C         51.40945        39.69666         0.40863
C         52.59251        41.70004         0.79507
C         51.75044        42.62890         1.34663
C         51.27470        43.79639         1.70371
O         34.52026        35.82205        -1.47528
O         39.67801        28.59885        -1.77444
O         45.32657        41.71854         2.55719
O         38.83444        35.21654        -2.33002
O         48.90301        38.41604         1.95252
O         32.74169        42.31535         1.78009
O         37.70465        39.35987        -2.33478
O         42.82649        42.36146         1.78749
O         47.06802        38.13485        -1.04316
O         46.38911        30.94302         1.32960
O         42.56600        27.60118        -1.65373
O         42.15267        35.58292        -2.03458
O         37.26233        31.83683         2.15144
O         35.84036        41.91800        -2.71325
O         50.59425        36.55259         1.30805
O         45.23901        32.10894        -1.98102
O         39.91838        45.30992         0.87034
O         48.07033        43.93910         3.36465
O         45.11607        44.29665        -0.41568
O         43.92310        34.37711         0.80519
O         35.37118        33.66918         1.72125
H         36.17090        33.28586         2.17658
O         39.35583        31.22663        -1.63890
H         39.92863        31.40342        -2.41581
O         40.20616        37.60453        -2.08319
H         41.03102        37.22515        -2.47303
O         36.63553        33.32273        -1.72913
H         37.36213        33.82347        -2.17725
O         41.89000        43.93043        -1.91911
H         41.05803        43.79072        -2.44175
O         41.95991        39.97015        -1.63235
H         41.32420        39.58522        -2.27583
O         37.95781        34.07037         1.59970
H         38.82882        34.54185         1.63988
O         39.31249        46.82483        -2.44788
H         38.50159        47.06206        -2.94531
O         38.38532        42.26563         0.84526
H         38.96956        42.76807         1.45074
O         42.28067        39.94307         1.99264
H         42.67165        40.68221         2.52122
O         49.15883        34.00510        -2.33147
H         48.28821        34.38522        -2.62243
O         39.27914        43.95435        -2.37052
H         38.42606        43.89352        -2.88160
O         39.16638        38.07187         1.39723
H         38.29364        38.29314         1.78921
O         46.56277        34.32030        -2.27868
H         46.29875        33.55671        -2.84254
O         38.32151        41.67436        -2.71642
H         37.52088        41.56392        -3.29380
O         42.07939        48.66221        -1.64797
H         42.03480        49.62545        -1.81575
O         33.96292        33.26773        -1.61694
H         34.27343        34.02354        -2.17150
O         36.48378        26.98513         0.70206
O         47.71782        28.82079         1.51876
H         47.43343        29.77898         1.75535
O         50.45452        41.24379         3.06435
H         50.14942        41.98050         3.63762
O         45.58847        40.63186        -0.90731
H         45.84773        39.81769        -1.39314
O         46.15285        39.17749         2.42291
H         46.92449        38.66778         2.76502
O         43.71015        30.95990         1.10412
H         44.61065        30.94059         1.54202
O         43.98141        26.44171         1.58041
H         44.80642        26.01214         1.88852
O         41.70441        37.70969         1.26727
H         41.11761        38.28831         1.81126
O         47.77110        41.19390         3.18318
H         46.88412        40.83510         3.43750
O         39.82394        34.33506        -2.90769
H         40.54115        34.95501        -3.19618
O         50.75151        38.78617        -1.67842
H         51.40926        39.30912        -2.18265
O         34.26820        39.71882         2.01426
H         34.89857        39.02629         2.32202
O         46.78414        29.31589        -1.93404
H         45.93737        29.48045        -2.42244
O         51.59398        34.21216        -2.48680
H         51.57674        33.36498        -2.98111
O         46.47641        34.71056         1.33177
H         46.05235        35.42753         1.86311
O         36.72529        44.18923        -2.85164
H         36.27623        43.44096        -3.34699
O         37.37332        29.54822         2.82785
H         36.69662        29.28232         3.49660
O         50.35736        33.15571         0.94645
H         51.00703        32.52406         1.32581
O         52.35499        34.83554         0.92262
H         52.18438        35.55236         1.57689
O         35.58966        37.18788         1.82537
H         35.04832        36.43311         2.14646
O         42.67777        31.37540        -2.40404
H         43.57245        31.64326        -2.72755
O         31.67280        31.18342         2.69250
H         30.93884        30.74148         3.16729
O         48.91261        42.85162         0.17927
H         49.61280        43.52506         0.03628
O         34.27415        31.21382         2.42592
H         33.40911        31.03054         2.87785
O         42.99227        37.88125        -2.12287
H         43.78017        37.41418        -2.47156
O         34.53171        28.89056        -0.62039
H         33.72247        29.08989        -1.13656
O         40.15667        35.66889         1.09376
H         40.78027        36.29332         1.54844
O         36.35708        39.29684        -2.78835
H         36.05363        40.26899        -2.83455
O         44.21740        29.42016        -2.20805
H         43.69223        28.69115        -2.61861
O         35.41148        31.13403        -0.96923
H         35.96871        31.73728        -1.52247
O         32.82547        40.17393        -1.29780
H         32.07267        40.69019        -1.65475
O         37.29113        44.41410         0.72286
H         37.89758        44.97945         1.25172
O         33.59476        43.36371        -2.48022
H         34.33113        42.74915        -2.77984
O         31.44098        33.65264        -1.50240
H         31.50875        32.69587        -1.72297
O         38.36529        28.01533        -1.84688
H         38.50937        27.21434        -2.40836
O         32.64643        31.10283        -0.85037
H         33.45719        31.37980        -1.34944
O         50.01690        28.67868        -0.74864
H         50.79475        29.18042        -1.07110
O         45.00251        36.94937         1.75229
H         44.07177        36.65706         1.87069
O         45.02264        28.76791         1.28425
H         45.90419        28.63589         1.71927
O         39.95232        31.08457         1.94543
H         39.30730        30.90428         2.66760
O         50.48163        31.55689        -2.34243
H         49.79507        32.16629        -2.70900
O         32.79836        33.57452         1.87031
H         33.65043        33.30697         2.29660
