         344
 CSIRO Nanostructure Databank - Neutral Graphene Oxide Data Set
C          1.34637         3.36067        -0.68472
C          0.12923         4.01687        -0.51806
C          1.23101         6.20539        -0.63322
C          0.06733         5.41033        -0.46956
C          1.18700         7.63321        -0.63817
C          0.01973         8.36943        -0.30465
C          1.08247        10.58462        -0.71552
C         -0.06267         9.74086        -0.32955
C          1.09662        12.04264        -0.37951
C         -0.11694        12.74344        -0.21146
C          1.05637        14.87953        -0.09080
C         -0.13743        14.12553        -0.09543
C          1.05121        16.33450        -0.04279
C         -0.14735        17.07265        -0.17290
C          1.05810        19.18438        -0.08932
C         -0.14012        18.45939        -0.22996
C          1.04862        20.68761        -0.33164
C         -0.07004        21.44259         0.37258
C          1.07182        23.56128        -0.19074
C         -0.07860        22.78423         0.41660
C          1.12487        25.05404         0.11722
C         -0.05021        25.81266         0.04715
C          1.18803        27.88955         0.31977
C         -0.02810        27.20694         0.12910
C          1.25271        29.33908         0.36598
C          3.79557         3.42601        -0.82286
C          2.55166         4.09920        -0.80924
C          3.70779         6.28215        -0.83746
C          2.49653         5.53759        -0.81871
C          3.69473         7.68054        -0.75858
C          2.40724         8.34545        -1.19002
C          3.67459        10.59461        -0.78900
C          2.37201         9.87008        -1.03520
C          3.60358        12.08235        -0.52549
C          2.29983        12.76979        -0.37693
C          3.53179        14.91364        -0.04681
C          2.29461        14.18155        -0.16625
C          3.53354        16.31813         0.12038
C          2.27653        17.04669         0.08223
C          3.49828        19.20941         0.38153
C          2.25242        18.47009         0.09434
C          3.51793        20.68086         0.19765
C          2.37024        21.37037         0.00039
C          3.61568        23.56408        -0.22894
C          2.35919        22.86218         0.28722
C          3.63514        25.01514         0.19947
C          2.37160        25.72328         0.29915
C          3.62345        27.85261         0.76953
C          2.37758        27.13604         0.45622
C          3.69295        29.31824         0.59175
C          2.43360        30.01489         0.46093
C          6.22545         3.43049        -0.67268
C          5.03251         4.11199        -0.84787
C          6.17051         6.32625        -0.43371
C          5.02487         5.60217        -1.11301
C          6.10724         7.66926        -0.12987
C          4.87053         8.42176        -0.40731
C          5.93613        10.53279         0.37513
C          4.83752         9.81265        -0.29881
C          5.97049        12.05271         0.39519
C          4.78784        12.80116        -0.03938
C          6.02545        14.89601         0.17299
C          4.77590        14.19199         0.03800
C          6.01578        16.31929         0.19279
C          4.78260        17.00100         0.24671
C          6.06327        19.20131         0.30680
C          4.79307        18.45584         0.49355
C          6.04076        20.58488         0.29239
C          4.79851        21.38611         0.60685
C          6.05702        23.51536         0.09227
C          4.87408        22.83028         0.14840
C          6.10572        24.96328         0.11334
C          4.85545        25.66088         0.30529
C          6.18214        27.80661         0.46946
C          4.93095        27.07471         0.70146
C          6.17346        29.23750         0.51632
C          4.91488        29.95252         0.56598
C          8.71112         3.42177        -0.07199
C          7.52197         4.09839        -0.56107
C          8.54070         6.22611         0.51071
C          7.47211         5.63370        -0.38302
C          8.54475         7.73597         0.41841
C          7.31808         8.37844         0.28751
C          8.52751        10.60841         0.78285
C          7.22413         9.80606         0.62439
C          8.48788        12.07701         0.53839
C          7.26960        12.76054         0.41298
C          8.49113        14.90515         0.15855
C          7.25350        14.17999         0.22663
C          8.50346        16.31647         0.18266
C          7.27920        17.04660         0.20431
C          8.56003        19.19558        -0.14328
C          7.28186        18.45505         0.17648
C          8.56805        20.58507         0.48405
C          7.31201        21.30613         0.05129
C          8.60696        23.51218         0.14176
C          7.33306        22.78766        -0.00816
C          8.59496        24.91350         0.12578
C          7.33494        25.63875         0.15911
C          8.61701        27.78197         0.16076
C          7.37004        27.08499         0.24818
C          8.62165        29.22023         0.25489
C          7.39101        29.91860         0.40668
C         11.15759         3.45246         0.33323
C          9.90172         4.14691         0.18749
C         11.05191         6.27452         0.91887
C          9.87210         5.55090         0.32858
C         11.10037         7.72436         0.37641
C          9.78027         8.46956         0.55406
C         11.04691        10.60954         0.65020
C          9.78012         9.84920         0.59779
C         11.00461        12.09555         0.48642
C          9.70816        12.79566         0.32322
C         10.95808        14.87082        -0.39004
C          9.71529        14.16638         0.10050
C         11.03815        16.32069        -0.00596
C          9.80758        17.01179         0.52039
C         11.04105        19.16413         0.14296
C          9.83076        18.47106         0.19301
C         11.04399        20.63785         0.10594
C          9.83919        21.34555         0.17764
C         11.05862        23.48663         0.02763
C          9.82550        22.77115         0.12828
C         11.03909        24.90570        -0.07544
C          9.83852        25.62202         0.02259
C         11.06747        27.78215        -0.07679
C          9.83916        27.07476         0.00765
C         11.07461        29.22349         0.03312
C          9.84759        29.91134         0.19461
C         13.60875         3.43069         0.47070
C         12.36519         4.13549         0.47312
C         13.54838         6.29927         0.55626
C         12.36964         5.58530         0.62359
C         13.59487         7.73636         0.66686
C         12.31292         8.47186         0.97759
C         13.50876        10.57804         0.31165
C         12.33969         9.90162         0.50074
C         13.52990        12.01949        -0.13286
C         12.24584        12.79088         0.10427
C         13.50190        14.85168        -0.29267
C         12.24913        14.13680        -0.11778
C         13.44037        16.30083        -0.72140
C         12.21761        17.01688        -0.17907
C         13.55744        19.13038         0.06780
C         12.26259        18.43151         0.02337
C         13.56103        20.62932         0.19834
C         12.27557        21.36414         0.09501
C         13.56935        23.49779         0.35954
C         12.28545        22.75747         0.06200
C         13.57078        24.92945        -0.10503
C         12.29278        25.60642        -0.52377
C         13.51305        27.77719        -0.33299
C         12.30171        27.08949        -0.25289
C         13.52954        29.23083        -0.24710
C         12.29933        29.91546        -0.03651
C         16.06977         3.44473         0.41387
C         14.83282         4.10528         0.40426
C         16.04839         6.26826         0.75429
C         14.82342         5.60039         0.14262
C         16.06593         7.75946         0.50109
C         14.78413         8.45222         0.53550
C         15.98691        10.62187         0.36018
C         14.78901         9.89826         0.42312
C         16.01091        12.04578         0.18746
C         14.71626        12.79137         0.43282
C         15.96014        14.88849        -0.32225
C         14.70580        14.21157        -0.09989
C         15.94041        16.29649        -0.58056
C         14.75437        17.02514        -0.52330
C         15.99596        19.17270        -0.49071
C         14.79333        18.45201        -0.38836
C         16.01844        20.62699        -0.35048
C         14.81721        21.35534        -0.09973
C         16.03113        23.46929        -0.19728
C         14.81609        22.75052        -0.05883
C         16.02927        24.90733        -0.18271
C         14.76224        25.61445        -0.21308
C         15.97806        27.74589        -0.47427
C         14.76851        27.05837        -0.40157
C         15.98262        29.21837        -0.81191
C         14.72424        29.92047        -0.40761
C         18.58030         3.46709         0.18402
C         17.30533         4.16519         0.28824
C         18.53434         6.34984         0.03795
C         17.30177         5.55133         0.33433
C         18.53141         7.69631         0.76433
C         17.24427         8.44132         0.50548
C         18.51974        10.58657         0.17703
C         17.27765         9.93266         0.72007
C         18.44306        11.97961        -0.41609
C         17.18468        12.74533        -0.06907
C         18.43463        14.89265        -0.41809
C         17.17644        14.17140        -0.26165
C         18.45769        16.24428        -0.69009
C         17.19615        16.98841        -1.03417
C         18.44898        19.14502        -0.76761
C         17.23826        18.47185        -0.71407
C         18.46691        20.64446        -0.98198
C         17.22013        21.34436        -0.50941
C         18.49782        23.48323        -0.38978
C         17.24663        22.75494        -0.38460
C         18.48955        24.90347        -0.29177
C         17.23621        25.61383        -0.26867
C         18.43922        27.77421        -0.24788
C         17.22791        27.05476        -0.34906
C         18.40890        29.22700        -0.17611
C         17.22556        29.91678        -0.35066
C         19.76617         4.14084         0.22637
C         20.97522         6.30634         0.39026
C         19.81677         5.58225         0.27233
C         20.95984         7.74698         0.34310
C         19.79715         8.47124         0.42717
C         20.94169        10.66185        -0.08478
C         19.72327         9.91132         0.18564
C         20.93912        12.02125        -0.17218
C         19.71056        12.77620        -0.19533
C         20.90181        14.94943        -0.10460
C         19.68855        14.15827        -0.23883
C         20.93697        16.25916        -0.41784
C         19.75159        16.94526        -1.04263
C         20.88238        19.16712        -0.70116
C         19.71208        18.44730        -0.81216
C         20.89368        20.58050        -0.48878
C         19.74395        21.32826        -0.54678
C         20.93187        23.51705        -0.32865
C         19.73604        22.77830        -0.41477
C         20.92189        24.90469        -0.23823
C         19.71496        25.62851        -0.22180
C         20.85368        27.82728         0.10766
C         19.69278        27.08551        -0.11853
C         20.81742        29.23896         0.22341
C         19.63715        29.92754         0.09367
O         11.09458        11.49620         1.84783
O          7.77352        10.12455         1.93699
O          3.95783        11.53091        -1.88208
O          7.37168        21.94931        -1.26085
O          4.05443        18.84585         1.72236
O          7.87436         5.08521        -1.63592
O          1.56918        10.43031        -2.11765
O         13.70884        19.79950         1.40718
O          4.29061        27.37722         1.98838
O          5.54955        11.26158         1.59224
O         11.34301         7.64733        -1.05150
H         10.66996         7.04652        -1.43935
O         13.62930        23.56170         1.83355
H         13.71605        22.64068         2.16246
O          2.35776        22.99899         1.72797
H          3.16787        22.54706         2.07890
O         16.02614        29.28194        -2.30556
H         16.87855        28.87840        -2.57788
O          8.50774        20.40008         1.91966
H          8.52981        21.27837         2.35308
O         18.44793        20.80806        -2.45396
H         19.23441        20.33614        -2.80306
O          3.57738        23.54034        -1.70164
H          4.46410        23.80457        -2.02942
O         10.86263         6.29504         2.35774
H          9.91360         6.09947         2.54364
O          2.36869         8.08077        -2.63639
H          1.81080         8.79695        -3.02510
O         12.26564        25.47697        -2.00254
H         13.00933        26.01278        -2.35404
O         19.89604        16.80007        -2.51224
H         19.98850        15.84023        -2.69732
O          0.93680        23.47384        -1.63788
H          1.81540        23.70702        -2.02856
O          9.89408        16.91214         2.00262
H         10.54135        17.58363         2.30832
O         13.72220        11.99109        -1.57750
H         13.03478        11.41537        -1.97222
O         15.98497         6.11192         2.19954
H         16.83874         6.46464         2.55299
O         18.36107        11.76644        -1.87483
H         19.13017        11.21346        -2.13070
O          4.72847        21.47896         2.08422
H          4.55229        20.55206         2.39437
O         14.95029         5.76979        -1.29990
H         14.11741         5.46162        -1.71438
O         14.54380        12.86800         1.87269
H         15.27875        13.40006         2.24183
O         18.54619         7.43815         2.20372
H         18.43329         8.31977         2.63401
O          8.58088        19.39036        -1.58831
H          8.57930        18.50940        -2.01751
O         17.10718        16.94222        -2.51273
H         18.01806        17.13040        -2.85095
O         10.82782        14.87065        -1.85806
H         11.62443        15.34555        -2.21420
O         17.39983        10.07193         2.20338
H         16.50606         9.91374         2.58002
O          8.11352         5.94227         1.90738
H          7.56119         6.69314         2.21660
O         13.23592        16.28175        -2.18919
H         14.05928        15.93185        -2.59552
O         18.47737         6.66810        -1.39038
H         18.28573         5.83780        -1.87494
O          0.83714        20.79897        -1.76595
H          0.75675        21.76975        -1.96846
O         12.19806         8.54006         2.41734
H         11.56124         9.24937         2.64865
O          5.23331         5.74868        -2.55566
H          4.87139         6.62066        -2.82435
H          1.38614         2.26203        -0.69557
H         -0.79542         3.43152        -0.41560
H         -0.91210         5.89033        -0.33970
H         -0.87031         7.81569         0.02936
H         -0.99341        10.22140         0.00076
H         -1.07023        12.19815        -0.21567
H         -1.10936        14.62868        -0.00697
H         -1.10584        16.54800        -0.28367
H         -1.08393        18.99767        -0.39422
H         -0.89900        20.87175         0.81985
H         -0.89989        23.32113         0.91600
H         -1.01052        25.30164        -0.11208
H         -0.96380        27.77752         0.04126
H          0.30955        29.89749         0.27205
H          3.80206         2.32917        -0.72749
H          2.44472        31.11470         0.43502
H          6.19426         2.34984        -0.46136
H          4.94877        31.05010         0.48647
H          8.69589         2.32961         0.05341
H          7.40445        31.01822         0.44239
H         11.16640         2.35668         0.23414
H          9.85355        31.00871         0.27420
H         13.59398         2.33060         0.52248
H         12.30348        31.01378         0.02957
H         16.09853         2.34675         0.49146
H         14.72999        31.02009        -0.35945
H         18.57035         2.36793         0.14841
H         17.22163        31.01601        -0.29612
H         20.71553         3.58384         0.23950
H         21.94614         5.79249         0.45724
H         21.92885         8.24820         0.20529
H         21.90390        10.13358        -0.10629
H         21.89940        12.55016        -0.25075
H         21.80727        14.46744         0.29094
H         21.87967        16.80996        -0.29520
H         21.85565        18.66061        -0.74017
H         21.86391        21.05279        -0.28063
H         21.90136        23.00115        -0.35005
H         21.88433        25.43155        -0.19100
H         21.82315        27.32388         0.22002
H         21.75397        29.78094         0.41650
H         19.61429        31.02382         0.17275
