         200
 CSIRO Nanostructure Databank - Neutral Graphene Oxide Data Set
C        -11.03776         0.64542        -0.52089
C         -9.84844         1.41469        -0.28792
C         -8.61371         0.69709        -0.02832
C         -7.42061         1.41992         0.18470
C         -6.19441         0.73287         0.32723
C         -4.94358         1.47293         0.39809
C         -3.70724         0.77612         0.40629
C         -2.47808         1.48722         0.23100
C         -1.22843         0.76054         0.17297
C          0.00563         1.45421         0.12965
C          1.24013         0.76735         0.12711
C          2.48896         1.49856         0.11373
C          3.72875         0.81507         0.09392
C          4.96957         1.47670         0.05308
C          6.20459         0.76772         0.01112
C          7.44250         1.50319        -0.02876
C          8.66611         0.82003        -0.14335
C          9.90416         1.51950        -0.00509
C         11.13037         0.76584         0.14974
C         -9.84676         2.81370        -0.38215
C         -8.68055         3.58783        -0.15216
C         -7.48709         2.89951         0.46850
C         -6.18810         3.61909         0.23031
C         -4.96444         2.89651         0.29845
C         -3.72927         3.61090         0.20173
C         -2.51253         2.89342         0.12963
C         -1.27655         3.64714        -0.11732
C          0.03412         2.90815        -0.07281
C          1.24978         3.66462         0.26134
C          2.49832         2.93890         0.28494
C          3.71050         3.62109         0.35649
C          4.96272         2.96834        -0.16750
C          6.24275         3.63673         0.24203
C          7.43445         2.94355         0.14774
C          8.70082         3.66054         0.18322
C          9.89736         2.92565         0.12501
C         -8.63945         4.97082        -0.33227
C         -7.43577         5.72013        -0.17603
C         -6.19226         5.01119         0.04922
C         -4.95762         5.74115         0.04546
C         -3.73222         5.04380         0.12705
C         -2.50000         5.78020         0.14654
C         -1.26515         5.09541         0.11511
C         -0.04264         5.78447         0.19905
C          1.19423         5.05134         0.32760
C          2.40750         5.80937         0.65369
C          3.73536         5.04621         0.67696
C          4.96994         5.81288         0.45631
C          6.25770         5.07029         0.69763
C          7.49572         5.81149         0.25373
C          8.68200         5.09084         0.14336
C         -7.40122         7.12167        -0.34525
C         -6.20301         7.85464        -0.27577
C         -4.95597         7.17192        -0.06124
C         -3.74660         7.89703         0.02680
C         -2.50197         7.20535         0.17304
C         -1.27111         7.91056         0.25455
C         -0.04543         7.21799         0.26951
C          1.20988         7.93767         0.23570
C          2.43565         7.25325         0.35916
C          3.67937         7.91540         0.21285
C          4.93536         7.18813         0.28311
C          6.19074         7.90676         0.09633
C          7.40861         7.22113         0.08586
C         -6.16872         9.28176        -0.46001
C         -4.99660         9.98535        -0.41575
C         -3.73283         9.33910        -0.13321
C         -2.55302        10.04710        -0.02235
C         -1.28268         9.40445         0.46478
C         -0.01320        10.05880        -0.00970
C          1.20034         9.36722         0.01246
C          2.46504        10.01911        -0.15991
C          3.67448         9.32547        -0.05707
C          4.94415         9.99907        -0.21026
C          6.13179         9.32580        -0.13182
C        -11.02386        -0.72463        -0.50828
C         -9.81052        -1.46539        -0.27070
C         -8.59664        -0.72633        -0.03542
C         -7.38175        -1.42421         0.21971
C         -6.18916        -0.67976         0.36507
C         -4.94399        -1.37151         0.74509
C         -3.66798        -0.65243         0.52917
C         -2.47965        -1.35518         0.35086
C         -1.23828        -0.66657         0.17722
C         -0.00021        -1.37565         0.00901
C          1.20383        -0.64846         0.00432
C          2.46815        -1.33947        -0.27235
C          3.70993        -0.65711         0.18364
C          4.99113        -1.42117         0.18225
C          6.24272        -0.66373         0.02444
C          7.42840        -1.38288        -0.18599
C          8.66202        -0.62655        -0.39999
C         10.01985        -1.41507        -0.23591
C         11.17872        -0.59537         0.14654
C         -9.78002        -2.85844        -0.28404
C         -8.57129        -3.58715        -0.05711
C         -7.36045        -2.87173         0.23743
C         -6.17022        -3.59382         0.48138
C         -4.95622        -2.86537         0.91125
C         -3.61385        -3.59738         1.03121
C         -2.49881        -2.84073         0.30764
C         -1.22033        -3.57842         0.10328
C          0.04393        -2.82085        -0.05646
C          1.21777        -3.54156        -0.23677
C          2.48804        -2.82447        -0.47127
C          3.78803        -3.52911        -0.35420
C          4.97493        -2.86158        -0.16931
C          6.24171        -3.55829        -0.20717
C          7.45274        -2.82132        -0.18689
C          8.70981        -3.53574        -0.06204
C          9.91666        -2.82611         0.08794
C         -8.54081        -4.99360        -0.11798
C         -7.33553        -5.71209         0.03345
C         -6.12258        -5.00175         0.31956
C         -4.87563        -5.72381         0.38323
C         -3.63707        -5.04694         0.58731
C         -2.42548        -5.73098         0.47959
C         -1.12109        -4.98707         0.67553
C          0.08769        -5.71235         0.13023
C          1.22101        -4.99043        -0.20397
C          2.45500        -5.72184        -0.56465
C          3.79125        -4.96926        -0.62398
C          5.03346        -5.71197        -0.37943
C          6.24497        -4.98529        -0.23268
C          7.49103        -5.69457        -0.10226
C          8.68372        -4.95927         0.01985
C         -7.29965        -7.13399        -0.09052
C         -6.10318        -7.83858        -0.01571
C         -4.86274        -7.13005         0.17711
C         -3.62930        -7.84233         0.15866
C         -2.40157        -7.13885         0.25917
C         -1.15419        -7.85098         0.15957
C          0.07605        -7.14771         0.07484
C          1.30162        -7.86362        -0.08312
C          2.51906        -7.16530        -0.29298
C          3.75935        -7.84132        -0.29751
C          5.00761        -7.12126        -0.32022
C          6.25541        -7.82805        -0.17916
C          7.45594        -7.12262        -0.09122
C         -6.06080        -9.27671        -0.14772
C         -4.88248        -9.96145        -0.11561
C         -3.61755        -9.27743         0.01910
C         -2.40883        -9.96737         0.01651
C         -1.15639        -9.28262         0.07079
C          0.07086        -9.98185         0.02125
C          1.30471        -9.29997        -0.03906
C          2.55913        -9.97602        -0.08661
C          3.76348        -9.27601        -0.16749
C          5.03817        -9.95656        -0.12651
C          6.21735        -9.27192        -0.12393
O          9.45164        -1.05569        -1.53895
O         -5.14142        -2.00112         2.09155
O          4.90182         3.15715        -1.64582
H          4.14355         2.62743        -1.97545
O          2.50279        -1.89785        -1.63022
O          3.05993        -5.34072        -1.84378
O         -1.28633         9.60873         1.94607
H         -0.49967         9.13978         2.29947
O          4.25442        -1.16377         1.45231
O          6.35789         4.99694         2.17913
H          6.21706         5.90391         2.52610
O         -0.57680         3.28318        -1.36876
O          3.02949         5.42136         1.92161
O         -2.16872        -3.40476        -1.00696
O         -7.71401         2.99115         1.93008
H         -8.56136         2.53357         2.11818
O         -0.86421        -4.86447         2.10346
H         -1.67751        -4.48098         2.52026
O         -3.25896        -3.61904         2.44333
H         -3.79792        -2.90821         2.87578
H         12.10790        -1.11225         0.43047
H         12.04139         1.33315         0.39419
H         10.85865         3.45849         0.18638
H          9.62556         5.62419        -0.05235
H          8.33322         7.78687        -0.11042
H          7.07915         9.86998        -0.26252
H          4.93904        11.08254        -0.40065
H          2.48051        11.10305        -0.34952
H         -0.00997        11.14890        -0.16359
H         -2.56159        11.13990        -0.15822
H         -5.00386        11.07556        -0.56321
H         -7.11683         9.80707        -0.64928
H         -8.34321         7.65732        -0.53954
H         -9.55116         5.49948        -0.65261
H        -10.77274         3.32698        -0.68590
H        -11.97736         1.18267        -0.71817
H        -11.95213        -1.28572        -0.69122
H        -10.70503        -3.41936        -0.48624
H         -9.47106        -5.54388        -0.32425
H         -8.24072        -7.67518        -0.27028
H         -7.01138        -9.81617        -0.27273
H         -4.87601       -11.05718        -0.21357
H         -2.41095       -11.06455        -0.06987
H          0.06132       -11.08206         0.00443
H          2.57483       -11.07510        -0.03230
H          5.03904       -11.05521        -0.06734
H          7.17132        -9.81651        -0.06258
H          8.40199        -7.67693         0.00351
H          9.63630        -5.49748         0.13718
H         10.80943        -3.35118         0.46027
