         424
 CSIRO Nanostructure Databank - Neutral Graphene Oxide Data Set
C          1.33185         3.46750         1.52483
C          0.17045         4.14428         1.34669
C          1.28263         6.32304         1.60849
C          0.12463         5.57234         1.48678
C          1.24103         7.82562         1.77992
C          0.02702         8.49156         1.18408
C          1.26875        10.58378         0.92711
C          0.04520         9.79963         0.86303
C          1.22797        11.99185         0.64521
C          0.06385        12.73601         0.71741
C          1.19594        14.83820         0.12934
C          0.03829        14.11965         0.43068
C          1.16773        16.29489        -0.03577
C         -0.02118        17.03837         0.07947
C          1.15649        19.10815        -0.43155
C         -0.02608        18.41190        -0.15392
C          1.16801        20.57669        -0.81829
C         -0.08769        21.33612        -0.46542
C          1.17942        23.43686        -0.33916
C         -0.05594        22.66449        -0.24917
C          1.15294        24.86990        -0.36250
C         -0.05933        25.60345        -0.21245
C          1.12804        27.72469        -0.35655
C         -0.07664        26.97842        -0.20709
C          1.14901        29.16050        -0.36533
C         -0.04715        29.94441        -0.55836
C          1.32620        32.02362        -0.82624
C          0.00549        31.28048        -0.80967
C          1.21565        33.50986        -0.53361
C          0.03348        34.24243        -0.64773
C          1.23519        36.35582        -0.44584
C          0.03335        35.64365        -0.56791
C          1.27397        37.79680        -0.43779
C          3.82678         3.51285         1.60066
C          2.56279         4.19507         1.99316
C          3.75788         6.38210         1.51059
C          2.55041         5.66602         1.65901
C          3.74027         7.82320         1.36734
C          2.52731         8.52302         1.38195
C          3.75003        10.73369         1.34765
C          2.48571         9.93157         1.15951
C          3.75488        12.07898         0.65285
C          2.47061        12.63062         0.08329
C          3.65136        14.80464        -0.13953
C          2.45069        14.13787         0.07628
C          3.59098        16.21352        -0.57846
C          2.36149        16.99012        -0.34359
C          3.65026        19.11780        -0.67558
C          2.38037        18.39785        -0.48285
C          3.66449        20.56150        -0.62330
C          2.39449        21.25633        -0.20056
C          3.62973        23.45301        -0.55838
C          2.39891        22.75253        -0.42258
C          3.62395        24.87971        -0.66098
C          2.37285        25.59505        -0.53570
C          3.55581        27.77391        -0.86130
C          2.34300        27.01037        -0.51926
C          3.59493        29.20915        -0.51805
C          2.39662        29.85589        -0.25910
C          3.66955        32.03291         0.32134
C          2.30015        31.31797         0.15244
C          3.65988        33.48398        -0.13473
C          2.44456        34.20123        -0.31941
C          3.69607        36.33105        -0.25760
C          2.46197        35.63203        -0.33879
C          3.71513        37.77079        -0.27551
C          2.45709        38.47199        -0.35452
C          6.22220         3.53871         1.17547
C          4.99984         4.22735         1.39524
C          6.22033         6.38029         1.19174
C          5.00067         5.68041         1.38940
C          6.22351         7.81889         1.09750
C          4.99234         8.53048         1.15977
C          6.22444        10.63671         0.95140
C          5.00572         9.93887         1.07056
C          6.19188        12.12919         0.96373
C          4.91756        12.79131         0.56267
C          6.13004        14.88740        -0.09033
C          4.93202        14.16559         0.05084
C          6.13965        16.25975        -0.51086
C          4.87024        16.95002        -0.83049
C          6.10477        19.13607        -1.22263
C          4.84156        18.42544        -0.82102
C          6.11293        20.60087        -0.87213
C          4.86822        21.28514        -0.71135
C          6.09251        23.44217        -0.69156
C          4.87030        22.73518        -0.63984
C          6.08627        24.87685        -0.72251
C          4.85211        25.57100        -0.81442
C          6.16259        27.78735        -1.19054
C          4.84399        27.02039        -1.10290
C          6.09466        29.20522        -0.64924
C          4.86975        29.90640        -0.46937
C          6.10889        32.00370        -0.19208
C          4.88371        31.29263        -0.20890
C          6.12659        33.44021        -0.08516
C          4.88423        34.17163        -0.12690
C          6.15484        36.30130        -0.13809
C          4.91388        35.60531        -0.19078
C          6.16992        37.74067        -0.17329
C          4.93224        38.44659        -0.23586
C          8.64169         3.52265         0.83204
C          7.43837         4.23085         1.04791
C          8.69806         6.36700         0.99221
C          7.45040         5.67161         1.07873
C          8.71038         7.81127         0.96955
C          7.45698         8.52790         0.98870
C          8.74967        10.70629         1.14882
C          7.45069         9.95019         0.93753
C          8.73542        12.13546         0.65949
C          7.47436        12.89248         0.85850
C          8.66205        14.84723        -0.21128
C          7.43239        14.38227         0.53167
C          8.59560        16.22921        -0.68559
C          7.33020        16.99060        -0.59932
C          8.55975        19.12984        -0.78685
C          7.36980        18.40734        -0.82700
C          8.58237        20.56702        -0.84044
C          7.33272        21.29330        -0.83768
C          8.57388        23.41934        -0.72621
C          7.34699        22.72789        -0.74241
C          8.57583        24.86370        -0.59696
C          7.32308        25.59990        -0.63748
C          8.54253        27.72596        -0.43648
C          7.34855        27.01179        -0.66375
C          8.56329        29.13957        -0.41489
C          7.32032        29.87928        -0.46506
C          8.58150        31.98954        -0.14599
C          7.33819        31.29061        -0.27683
C          8.58538        33.40417        -0.04820
C          7.35290        34.13287        -0.06193
C          8.60927        36.27616        -0.03148
C          7.37597        35.57759        -0.05646
C          8.62795        37.71175        -0.11677
C          7.40166        38.41853        -0.16573
C         11.03434         3.45722         0.32241
C          9.87106         4.19487         0.70522
C         11.19713         6.30527         0.86339
C          9.89883         5.61796         0.89308
C         11.24990         7.82590         0.97271
C          9.92606         8.52891         0.80196
C         11.16766        10.62647         0.36870
C          9.96309         9.92773         0.71175
C         11.15350        12.03676         0.15698
C          9.89754        12.76645         0.26296
C         11.12135        14.86113        -0.41567
C          9.86468        14.17495        -0.14133
C         11.13982        16.25646        -0.62607
C          9.87984        16.98414        -0.83242
C         11.08877        19.17795        -0.88498
C          9.85598        18.44053        -0.44942
C         11.08286        20.55563        -0.85439
C          9.81063        21.26651        -0.77174
C         11.06164        23.38539        -0.74971
C          9.82083        22.69560        -0.74118
C         11.03598        24.85341        -0.78871
C          9.77223        25.54923        -0.50730
C         11.05537        27.73249        -0.22924
C          9.77336        26.96742        -0.01569
C         11.03478        29.11437        -0.19983
C          9.79808        29.84597        -0.23785
C         11.04942        31.97150         0.10681
C          9.81263        31.26073        -0.12542
C         11.01871        33.39203         0.23907
C          9.83062        34.10298         0.08043
C         11.06088        36.24281        -0.04480
C          9.84815        35.56040         0.03410
C         11.08917        37.67020        -0.16560
C          9.87246        38.38427        -0.17556
C         13.40221         3.40780        -0.40365
C         12.24851         4.08456         0.01855
C         13.39381         6.27621        -0.50965
C         12.36619         5.53602         0.31415
C         13.50688         7.74441        -0.19116
C         12.38225         8.46980         0.19483
C         13.56699        10.57457        -0.28739
C         12.37468         9.89273         0.10296
C         13.57262        12.00549        -0.35903
C         12.35660        12.72055        -0.19056
C         13.56645        14.85451        -0.64163
C         12.35326        14.15377        -0.38897
C         13.54975        16.26292        -0.84724
C         12.34471        16.96529        -0.82071
C         13.59733        19.15319        -0.96531
C         12.31882        18.41071        -1.29635
C         13.57547        20.57762        -0.82290
C         12.33841        21.28951        -0.85523
C         13.56232        23.42444        -0.57732
C         12.31485        22.70633        -0.76140
C         13.57154        24.83233        -0.41586
C         12.34079        25.60561        -0.64279
C         13.49538        27.66236         0.09354
C         12.31138        27.02281        -0.23106
C         13.42166        29.10597         0.53155
C         12.35628        29.85148        -0.26107
C         13.51441        31.97452         0.43194
C         12.27968        31.29189         0.17900
C         13.55233        33.37850         0.51300
C         12.26530        34.15954         0.60871
C         13.60196        36.21361         0.11480
C         12.34005        35.44771        -0.19375
C         13.57326        37.63983        -0.09319
C         12.34537        38.33015        -0.25358
C         15.81854         3.38360        -0.89121
C         14.65718         4.08376        -0.59168
C         15.89255         6.24149        -0.61634
C         14.69627         5.53715        -0.51969
C         15.91850         7.65241        -0.72252
C         14.72903         8.41066        -0.52042
C         16.01128        10.52117        -0.72545
C         14.75358         9.83416        -0.53653
C         15.99304        11.95400        -0.80880
C         14.80438        12.69132        -0.65899
C         16.00949        14.84343        -0.99385
C         14.80837        14.13149        -0.77933
C         16.05091        16.26346        -1.00989
C         14.78161        16.99293        -1.33215
C         16.05088        19.13958        -0.81754
C         14.79871        18.45826        -0.96779
C         16.04562        20.56481        -0.64503
C         14.81474        21.27486        -0.64905
C         16.00297        23.40315        -0.19945
C         14.79409        22.70513        -0.47661
C         15.98325        24.81179         0.02210
C         14.75494        25.53056        -0.07858
C         15.93220        27.64854         0.46394
C         14.73639        26.95322         0.15227
C         15.93670        29.08956         0.61107
C         14.74688        29.82734         0.50035
C         15.97830        31.95603         0.74610
C         14.75308        31.24163         0.54101
C         15.99636        33.38103         0.74973
C         14.78251        34.08217         0.58271
C         16.03408        36.25453         0.50190
C         14.78004        35.53856         0.41595
C         16.01314        37.65831         0.14761
C         14.79699        38.32697        -0.11765
C         18.36096         3.33152        -0.96785
C         17.09231         4.11477        -1.23097
C         18.42976         6.19786        -0.76318
C         17.15969         5.44029        -0.47069
C         18.45843         7.59272        -0.86140
C         17.17943         8.34709        -1.17886
C         18.52156        10.49919        -0.55984
C         17.20805         9.80120        -0.80655
C         18.53856        11.89011        -1.17077
C         17.23100        12.61768        -1.26562
C         18.57326        14.81760        -1.15045
C         17.25183        14.10760        -1.31121
C         18.50044        16.21240        -0.61780
C         17.25360        16.98675        -0.87316
C         18.58569        19.14144        -0.86624
C         17.26843        18.39862        -0.80954
C         18.50541        20.57641        -0.39416
C         17.29143        21.26906        -0.42841
C         18.43543        23.40061         0.12032
C         17.25935        22.70039        -0.16124
C         18.40871        24.79399         0.44823
C         17.17887        25.51495         0.35289
C         18.35712        27.60174         0.95057
C         17.15734        26.92247         0.57916
C         18.34870        29.01957         1.14832
C         17.15850        29.78430         0.89307
C         18.34671        31.87923         1.48582
C         17.17756        31.19874         0.98143
C         18.34320        33.30570         1.64403
C         17.34358        34.09757         0.78060
C         18.39990        36.46417         1.02256
C         17.23644        35.63029         0.89694
C         18.41981        37.78498         0.44596
C         17.22262        38.35863         0.00261
C         19.53150         3.97549        -0.76961
C         20.85733         6.10220        -0.84290
C         19.62073         5.43273        -0.77457
C         20.90155         7.48879        -0.88472
C         19.71553         8.26744        -0.90980
C         20.94054        10.43988        -1.08501
C         19.76084         9.71310        -0.93383
C         20.98738        11.84688        -1.03864
C         19.82173        12.64154        -1.05814
C         21.03027        14.81690        -0.79905
C         19.82866        14.05095        -0.97619
C         21.03371        16.16458        -0.57601
C         19.78982        16.91336        -0.32353
C         20.88740        19.09097         0.08635
C         19.77934        18.39673        -0.29471
C         20.89667        20.52252         0.10196
C         19.74121        21.24794        -0.09161
C         20.81659        23.34461         0.85457
C         19.78721        22.75729        -0.07818
C         20.73534        24.63731         1.23662
C         19.57755        25.45139         0.92020
C         20.71747        27.55943         1.60871
C         19.55675        26.85700         1.16847
C         20.68290        28.91082         1.85762
C         19.49955        29.67365         1.64364
C         20.47708        31.69643         2.68920
C         19.44934        31.08994         1.93004
C         20.40515        33.03984         2.97899
C         19.38579        33.83828         2.41049
C         20.70665        36.91931         1.79992
C         19.55767        36.14166         1.79222
C         20.76700        38.10355         1.03010
C         19.62864        38.54820         0.39928
O         17.95109        14.67059        -2.47034
O         11.74677        25.40426        -1.97872
O         19.49350        35.16755         2.78470
O         17.84919        11.97645        -2.44873
O         12.27203         5.75844         1.74493
O          4.12431        16.35779        -1.96148
O          9.19146        16.52617        -2.02054
O          3.99536        27.40382        -2.24249
O         18.96296        16.31072         0.76999
O          6.83672        12.65783         2.19795
O         17.88352        33.95919        -0.58440
H         17.83521        33.00923        -0.82612
O          3.97498        32.11738         1.74768
H          3.11829        32.05326         2.23007
O          1.91148        31.89882        -2.15037
H          1.29782        32.30679        -2.79567
O         17.23353         5.07149         0.94051
H         17.22428         5.89404         1.47240
O         12.84592         6.21859        -1.87607
H         13.53776         6.55707        -2.48427
O          6.11035        19.08744        -2.70223
H          5.24397        19.42863        -3.01141
O          8.87404        10.80215         2.61701
H          8.16267        11.42242         2.90881
O         18.88106        19.24204        -2.31731
H         19.57222        19.93111        -2.42541
O         20.21026        23.13433        -1.44205
H         20.20572        24.11461        -1.48430
O          1.13677         8.02894         3.23831
H          1.30649         8.98036         3.41073
O          6.45933        27.95242        -2.61427
H          5.58582        28.03526        -3.06607
O         14.68687        16.97971        -2.81571
H         14.90539        16.07171        -3.11941
O         12.12512        34.54940         2.00932
H         12.05375        33.73111         2.54377
O          9.68078        26.84062         1.46780
H          9.69964        27.75159         1.83392
O          2.47433        12.23202        -1.34292
H          3.11047        12.81681        -1.80910
O         12.79348        29.87142        -1.64877
H         12.10275        30.32045        -2.17938
O          1.33398        20.63396        -2.26108
H          0.57341        20.17638        -2.67532
O         18.61087        10.72091         0.89324
H         18.72330         9.84736         1.32364
O          1.65086        31.35509         1.45098
H          0.80015        30.87145         1.37748
O          9.94223        18.40727         1.02610
H          9.91935        19.33449         1.34584
O          7.51308        15.10659         1.80121
H          7.12212        14.51168         2.48415
O         17.10000         8.33737        -2.66237
H         17.66868         9.06539        -2.99490
O         11.59160         8.12781         2.36445
H         12.19421         7.40821         2.66625
O          2.50216         4.13994         3.48652
H          1.76498         4.72996         3.75715
O         12.42679        35.06518        -1.60104
H         12.50635        35.88698        -2.12927
O         12.98688        29.11152         1.92693
H         13.66849        28.64475         2.45443
O          3.78663        11.03954         2.78954
H          4.64213        11.48520         2.97458
O         17.04271         4.42149        -2.65469
H         17.02360         3.57587        -3.14856
O          2.27703        21.05204         1.24436
H          3.04519        21.48563         1.67158
O         12.25334        18.34098        -2.75727
H         13.08272        17.88874        -3.05941
H          1.36643         2.37096         1.44695
H         -0.75637         3.61131         1.08880
H         -0.85861         6.05793         1.43802
H         -0.91979         7.93746         1.12226
H         -0.86964        10.28409         0.49254
H         -0.86756        12.26561         1.06374
H         -0.92633        14.63742         0.51319
H         -0.97197        16.54347         0.31666
H         -0.98613        18.94255        -0.10112
H         -1.05948        20.82119        -0.47327
H         -0.99969        23.18973        -0.04735
H         -1.01064        25.07043        -0.08702
H         -1.03352        27.50180        -0.07603
H         -1.01811        29.43033        -0.61133
H         -0.92199        31.80890        -1.07291
H         -0.92588        33.73223        -0.81249
H         -0.91713        36.19048        -0.64907
H          0.32400        38.34735        -0.50609
H          3.85306         2.41282         1.59345
H          2.46937        39.57200        -0.35537
H          6.22045         2.43912         1.14671
H          4.94682        39.54654        -0.26417
H          8.60986         2.42783         0.73131
H          7.41551        39.51763        -0.21428
H         10.93607         2.37050         0.18160
H          9.88980        39.48205        -0.24684
H         13.36555         2.31721        -0.54494
H         12.36694        39.42304        -0.37855
H         15.77840         2.28864        -1.00939
H         14.81548        39.40476        -0.33695
H         18.32936         2.23132        -1.00955
H         17.21795        39.38263        -0.39806
H         20.46507         3.40532        -0.64295
H         21.79195         5.52296        -0.85270
H         21.88048         7.98644        -0.90494
H         21.89162         9.90914        -1.23570
H         21.97520        12.32773        -1.06156
H         21.99754        14.30094        -0.88640
H         21.99113        16.70406        -0.54870
H         21.79485        18.56104         0.41012
H         21.84756        21.02463         0.32101
H         21.70102        22.75666         1.13622
H         21.54136        25.06971         1.84622
H         21.66148        27.01827         1.75590
H         21.60168        29.40689         2.19751
H         21.30661        31.09993         3.08898
H         21.16769        33.52662         3.60051
H         21.54926        36.62874         2.44042
H         21.69062        38.69775         1.00969
H         19.61355        39.52149        -0.11092
