         280
 CSIRO Nanostructure Databank - Neutral Graphene Oxide Data Set
C         30.78591        32.11473        -2.59313
C         30.76458        33.34476        -2.49126
C         30.60965        36.21560        -1.34140
C         30.63764        37.43738        -1.08469
C         30.67220        40.62041        -0.75945
C         30.56118        41.83516        -0.53813
C         32.83213        29.11988        -1.63091
C         31.90251        29.85915        -1.98656
C         33.32579        31.93235        -2.24605
C         31.72867        31.03001        -2.82518
C         32.92361        33.18365        -1.43155
C         32.00689        34.17637        -2.22089
C         32.93864        36.07323        -0.89121
C         31.84760        35.44999        -1.43958
C         32.85887        37.41730        -0.16108
C         31.65374        38.29616        -0.59616
C         32.89868        40.33501         0.06736
C         31.69800        39.65592        -0.47854
C         32.89492        41.83355         0.24613
C         31.67945        42.71688        -0.18917
C         32.82634        44.45029         0.82664
C         31.65666        44.02817         0.47458
C         35.45833        27.40279        -0.59283
C         35.42268        28.76064        -1.16219
C         34.24242        29.55760        -1.58906
C         35.43561        31.62638        -0.91120
C         34.34138        31.05219        -1.51378
C         35.40343        33.09296        -0.59185
C         34.17484        33.89196        -0.86701
C         35.37536        36.04043        -0.14423
C         34.30312        35.41264        -1.03235
C         35.34305        37.36674         0.12290
C         34.16201        38.21252        -0.34278
C         35.21703        40.21601         1.04194
C         34.04251        39.61007         0.27972
C         35.28824        41.75498         0.83352
C         33.92721        42.38709         1.23820
C         35.09713        44.56142         2.09378
C         34.01528        43.93249         1.26573
C         35.39863        46.00492         1.81274
C         37.84338        27.17668        -0.16171
C         36.42054        26.83978        -0.06169
C         37.96203        28.67063        -0.68116
C         36.66937        29.47300        -0.73464
C         37.84997        31.54034        -0.13480
C         36.64850        30.85235        -0.57427
C         37.78831        32.99267         0.18619
C         36.70216        33.86831        -0.42567
C         37.83383        35.92680         0.49132
C         36.50840        35.17994         0.42098
C         37.81872        37.32210         0.62347
C         36.48256        37.99796         0.90444
C         37.76646        40.16414         1.35855
C         36.54194        39.52656         0.64041
C         37.80116        41.68729         1.23712
C         36.50879        42.36394         1.51956
C         37.80328        44.55972         1.65340
C         36.51722        43.81929         1.91417
C         37.83810        46.01993         1.70543
C         36.51300        46.52781         1.93545
C         39.98330        24.92393         2.02735
C         39.00383        25.35403         1.39956
C         40.27826        27.30479         0.72431
C         39.00755        26.52616         0.51411
C         40.26200        28.68094         0.41014
C         39.08285        29.39705         0.01923
C         40.26536        31.49921         0.59049
C         39.02731        30.80909         0.13832
C         40.29773        32.97723         0.81632
C         39.01788        33.73899         0.64454
C         40.27878        35.92813         0.66765
C         39.05772        35.22451         0.53608
C         40.26360        37.33506         0.76937
C         39.03418        38.02710         0.73418
C         40.26983        40.28885         0.72697
C         39.01045        39.51260         0.78659
C         40.27918        41.64230         1.43382
C         38.97166        42.39734         1.26818
C         40.14886        44.58797         0.80627
C         38.95678        43.85445         1.30988
C         40.20880        46.09988         0.94926
C         38.99510        46.75121         1.53744
C         40.26472        48.80997         1.36158
C         39.24620        48.14713         1.64827
C         42.51237        25.03036         2.70868
C         41.31727        25.44047         2.10308
C         42.70044        27.36247         1.32760
C         41.43737        26.69119         1.36781
C         42.75755        28.63824         0.56919
C         41.50777        29.42541         0.50131
C         42.84871        31.49454         0.59222
C         41.54748        30.78326         0.39371
C         42.87254        32.94780         0.96789
C         41.60078        33.70689         0.65690
C         42.86300        35.85019         1.17693
C         41.58437        35.19988         0.60927
C         42.86522        37.37734         1.04800
C         41.53029        38.09883         0.95010
C         42.76266        40.20210         0.65138
C         41.55314        39.54572         0.67822
C         42.79666        41.68570         0.72112
C         41.55235        42.43172         1.08662
C         42.74480        44.62341         0.61468
C         41.40881        43.80139         0.41782
C         42.65951        46.11290         0.16367
C         41.47698        46.85879         0.78258
C         42.75602        48.83568         0.47294
C         41.49565        48.25651         0.85684
C         43.57765        25.71693         2.65684
C         45.08688        27.82881         2.11774
C         43.87050        26.91870         2.00073
C         45.32513        28.54896         0.74861
C         44.06579        29.30548         0.35389
C         45.38588        31.57315         0.47213
C         44.11926        30.81144         0.13565
C         45.36445        32.92973         0.42410
C         44.22922        33.71418         1.05472
C         45.17149        35.87333        -0.12908
C         44.09240        35.15776         0.64613
C         45.26126        37.37519         0.15559
C         44.05129        38.09944         0.54214
C         45.14123        40.20949        -0.20916
C         43.99543        39.47891         0.45144
C         45.13635        41.70989        -0.02782
C         43.99753        42.40082         0.20639
C         45.23434        44.61676        -0.10925
C         43.89829        43.87964        -0.14187
C         45.20372        46.04052        -0.11258
C         44.05336        46.79789         0.48854
C         43.76867        48.23554         0.06581
C         47.46743        27.78927         1.98388
C         46.45280        27.21343         2.39875
C         47.74784        28.92425         1.13275
C         46.58143        29.42740         0.63478
C         47.83881        31.43782        -0.47723
C         46.47246        30.72345        -0.15837
C         47.82685        32.96208        -0.03880
C         46.48758        33.66963        -0.26497
C         47.75575        35.86719        -0.34911
C         46.52946        35.15850         0.16152
C         47.77414        37.37467        -0.16698
C         46.42120        38.04802        -0.10628
C         47.53459        40.24019        -0.82727
C         46.51567        39.56961         0.10110
C         47.42904        41.59648        -1.03187
C         46.48021        42.40177        -0.15515
C         47.57985        44.52257        -0.94727
C         46.39030        43.88244        -0.47992
C         47.46366        45.92581        -0.86425
C         46.45465        46.57495        -0.47164
C         50.13680        29.45557         1.85399
C         49.10135        29.43315         0.76465
C         50.24938        31.61643         0.18099
C         49.10317        30.88422         0.21508
C         50.29450        32.98633        -0.45204
C         48.97342        33.70352        -0.77634
C         50.19249        35.97604        -0.67081
C         48.95002        35.21703        -0.50815
C         50.15410        37.49796        -0.92531
C         48.69686        37.94377        -1.30232
C         49.28780        40.04160        -2.50518
C         48.53440        39.45103        -1.52653
C         49.38067        41.50849        -2.73969
C         48.33360        42.32632        -1.94713
C         49.69963        44.17736        -2.34571
C         48.58820        43.77338        -1.64472
C         51.18964        30.09581         1.87937
C         52.57290        32.08699         0.95581
C         51.61531        30.96364         0.72956
C         52.53470        33.20908         0.45895
C         51.52081        33.87261        -0.36075
C         52.57695        36.19382        -0.64231
C         51.40599        35.33196        -0.53063
C         52.48379        37.20501        -1.38951
C         51.37008        37.92123        -1.87678
C         52.10253        40.06730        -3.07270
C         51.28920        38.91540        -2.81319
C         51.75490        41.24145        -3.30631
C         50.70447        42.16974        -3.09285
C         50.65755        43.53762        -2.91596
O         41.73920        34.41880        -0.62015
O         46.89045        39.74575         1.44533
O         42.23559        37.92017         2.25500
O         39.80351        45.45943        -0.34578
O         44.35512        30.91952        -1.33783
O         43.40462        28.60938        -0.75595
O         51.24843        33.09870        -1.57106
O         40.23197        32.08558         1.95628
O         32.83150        42.51613        -1.03681
O         36.50484        42.76304         2.93245
O         42.54932        42.20755         2.12541
O         48.19077        42.05477        -3.38535
O         38.68834        26.28156        -0.90283
O         35.10253        28.91470        -2.56962
O         39.43206        40.15913        -0.48492
O         42.85185        31.94515         2.00121
O         49.99998        39.15738        -3.35148
O         38.01046        33.27455         1.59835
O         45.76408        30.38523        -1.44829
O         34.44202        33.41643         0.49207
O         38.37994        28.56442        -2.06914
H         38.82976        27.69353        -2.18355
O         46.16980        33.58121        -1.67813
H         47.02026        33.64567        -2.18996
O         44.79895        28.80417         3.10637
H         44.72681        28.37301         3.98283
O         48.77514        33.64043        -2.20933
H         49.64181        33.39723        -2.61491
O         42.47820        46.20668        -1.26547
H         41.51410        46.14227        -1.45311
O         35.01078        40.02613         2.45036
H         35.09543        39.05842         2.65034
O         33.92140        32.29394        -3.45876
H         34.27876        31.49126        -3.89410
O         43.00732        44.71334         2.01209
H         43.19601        43.81224         2.37104
O         34.78362        35.64151        -2.38953
H         34.70371        36.61575        -2.55089
O         49.59179        28.59688        -0.27497
H         50.49185        28.91913        -0.52196
O         33.51121        42.01425         2.54301
H         34.15466        42.36841         3.19952
O         32.71669        37.15835         1.24746
H         31.89432        36.64229         1.38546
O         34.70763        44.40462         3.45190
H         35.40957        44.76870         4.03100
O         44.61378        33.71991         2.45808
H         43.96564        34.28223         2.95035
O         43.60431        43.83731        -1.56244
H         43.35651        44.75123        -1.85021
O         44.78149        35.80127        -1.52414
H         45.08151        34.92342        -1.88220
O         45.52057        27.47156        -0.18021
H         45.41010        27.82595        -1.08863
O         34.34167        38.40918        -1.77574
H         35.13108        38.99168        -1.88293
O         32.58810        34.49443        -3.47386
H         32.06719        35.21124        -3.89028
O         37.72954        39.85363         2.75260
H         36.91971        40.25880         3.13969
O         42.76715        35.53772         2.60164
H         42.46626        36.36700         3.05507
O         37.16685        34.26105        -1.73118
H         36.43749        34.74353        -2.19901
O         44.26105        46.84282         1.88445
H         45.21407        46.97157         2.06731
O         36.69375        39.69733        -0.79639
H         37.65349        39.76956        -1.01940
O         36.21404        37.72905         2.30453
H         36.16386        36.74181         2.40542
O         46.68553        35.21754         1.61165
H         47.19109        36.04507         1.82127
O         31.92073        30.74707        -4.16319
H         31.64231        31.51393        -4.70301
O         32.14189        32.75096        -0.31373
H         32.75413        32.53944         0.42750
O         52.08694        30.12749        -0.30308
H         52.99463        29.82723        -0.09030
O         36.14160        34.93612         1.79860
H         35.36043        34.33200         1.79869
O         48.11253        32.96776         1.36703
H         47.63788        33.73316         1.78636
O         40.31395        41.33525         2.84443
H         41.25873        41.34786         3.13039
O         48.07251        31.29655        -1.87553
H         47.20521        31.16630        -2.32480
O         41.21426        43.42982        -0.95937
H         40.72522        44.15512        -1.40925
O         47.03606        42.38352         1.19339
H         47.06332        41.42323         1.49719
O         48.29212        37.56004         1.17100
H         47.98016        38.46164         1.49846
O         48.28246        37.25767        -2.49178
H         48.70078        37.70349        -3.26332
O         35.45726        42.06433        -0.55812
H         35.98639        41.34529        -0.98280
O         50.48929        38.21489         0.26340
H         51.28684        37.80672         0.66257
O         44.95726        40.01270        -1.64350
H         44.22322        40.58596        -1.95073
