         620
 CSIRO Nanostructure Databank - Neutral Graphene Oxide Data Set
C         22.92371        27.35961         0.29944
C         22.91975        28.71545         0.05047
C         22.99686        31.59901        -0.65433
C         22.96160        32.94687        -0.72577
C         22.98770        35.90084        -0.86632
C         23.00676        37.29638        -1.16861
C         23.12343        40.22361        -2.07781
C         23.21234        41.56631        -2.27748
C         23.17114        44.53914        -1.97919
C         23.12042        45.89404        -1.90289
C         25.30784        24.53878         0.93232
C         24.15572        25.23034         0.73297
C         25.33352        27.39723         0.65442
C         24.13133        26.67034         0.60706
C         25.34702        28.78557         0.35737
C         24.12736        29.47263         0.06820
C         25.36865        31.60643         0.02466
C         24.16034        30.88675        -0.15625
C         25.37700        33.05069        -0.09000
C         24.04710        33.76990        -0.08206
C         25.41363        35.85317        -0.61419
C         24.13869        35.19500        -0.57958
C         25.45111        37.23553        -1.12544
C         24.18417        37.98119        -1.30401
C         25.47921        40.23109        -1.17949
C         24.18933        39.47367        -1.39430
C         25.53066        41.66157        -1.53916
C         24.39750        42.33396        -1.93960
C         25.62063        44.49873        -1.95608
C         24.42382        43.81035        -2.02958
C         25.67849        45.96237        -2.05358
C         24.33084        46.71089        -2.04062
C         25.53103        48.72429        -1.29792
C         24.35831        48.09286        -1.54958
C         27.92164        23.10557         1.22849
C         27.87847        24.50399         1.10449
C         26.57991        25.22165         1.22040
C         27.86327        27.41808         0.73140
C         26.58998        26.73795         1.04922
C         27.83505        28.76361         0.41103
C         26.58964        29.48799         0.33154
C         27.83634        31.61514         0.37037
C         26.59482        30.89691         0.21528
C         27.76280        33.08569         0.51101
C         26.55141        33.77564         0.01060
C         27.85604        35.93361        -0.06342
C         26.60107        35.20325        -0.22680
C         27.88836        37.31726        -0.27956
C         26.77091        37.98996        -0.94932
C         27.99614        40.25519        -0.74325
C         26.77834        39.48619        -1.09918
C         27.96165        41.74469        -0.67405
C         26.75159        42.43232        -1.19982
C         28.13550        44.52444        -1.44257
C         26.92728        43.74647        -1.92152
C         28.12421        45.96032        -1.43379
C         26.89017        46.68268        -1.60372
C         28.01170        48.77484        -0.93269
C         26.82250        48.05860        -1.33193
C         27.99507        50.16523        -0.64142
C         30.34658        23.08018         1.00275
C         29.12271        22.40638         1.18468
C         30.32205        24.50340         0.86993
C         29.08751        25.22622         0.93083
C         30.32232        27.34779         0.59271
C         29.10446        26.66379         0.75692
C         30.34536        28.79106         0.40763
C         29.08408        29.49371        -0.01659
C         30.29753        31.64828         0.54942
C         29.06108        30.95789         0.36566
C         30.30652        33.07918         1.06377
C         29.01541        33.85493         0.78513
C         30.30942        35.95545         0.41231
C         29.06999        35.27943         0.37909
C         30.36290        37.37647         0.26849
C         29.08129        38.08982         0.13963
C         30.44124        40.27751        -0.15140
C         29.14342        39.58281        -0.07228
C         30.45925        41.68494        -0.45633
C         29.27674        42.41426        -0.75960
C         30.59416        44.48005        -1.10086
C         29.29369        43.79819        -1.08591
C         30.60097        46.01865        -1.13985
C         29.30111        46.69442        -1.12580
C         30.45511        48.78818        -0.45184
C         29.25790        48.08545        -0.84354
C         30.36846        50.14350        -0.05375
C         29.12336        50.81735        -0.19532
C         32.87662        20.25642         0.80441
C         31.69426        20.95210         1.05918
C         32.79506        23.09235         0.67240
C         31.61322        22.37142         0.93681
C         32.76075        24.50132         0.49612
C         31.54228        25.20881         0.64608
C         32.79995        27.32814         0.44998
C         31.56719        26.63388         0.56129
C         32.78695        28.76764         0.88758
C         31.51979        29.49591         0.50210
C         32.76421        31.65283         0.67738
C         31.51724        30.95237         0.52967
C         32.77988        33.08345         0.70957
C         31.56146        33.82483         0.68562
C         32.80178        35.94378         0.57317
C         31.55691        35.22102         0.57649
C         32.80952        37.37128         0.45124
C         31.58082        38.09571         0.29236
C         32.87217        40.24345         0.11527
C         31.61624        39.54467         0.10057
C         32.89444        41.67059        -0.02658
C         31.70820        42.38963        -0.34542
C         32.95462        44.53213        -0.33175
C         31.77255        43.79334        -0.56397
C         32.96762        45.97094        -0.42314
C         31.80802        46.71243        -0.66521
C         32.88564        48.84943        -0.01496
C         31.73491        48.12693        -0.40237
C         32.79964        50.17276         0.50681
C         31.51673        50.80652         0.53117
C         32.42967        52.57710         1.90364
C         31.36347        52.03717         1.20601
C         35.37472        18.80569         0.18041
C         35.28403        20.21336         0.12401
C         34.08056        20.90766         0.49683
C         35.05295        23.03337        -0.34012
C         34.14138        22.40536         0.68045
C         34.88778        24.40295        -0.61692
C         33.92267        25.21547         0.03124
C         35.26402        27.38666         0.07476
C         34.00676        26.65160         0.12366
C         35.27045        28.79197         0.40852
C         34.04644        29.52087         0.57850
C         35.22918        31.66622         0.85691
C         34.00518        30.92988         0.67496
C         35.23912        33.05260         0.94484
C         34.01738        33.79381         0.78369
C         35.27757        35.93084         0.79798
C         34.01682        35.21561         0.73653
C         35.25810        37.35773         0.58895
C         34.06715        38.07179         0.43401
C         35.31335        40.24026         0.30583
C         34.09156        39.52500         0.27446
C         35.32688        41.67684         0.28597
C         34.11372        42.40129         0.12058
C         35.35473        44.53176         0.34479
C         34.14725        43.82778         0.04221
C         35.42111        45.97263         0.26846
C         34.24212        46.68485        -0.24493
C         35.38246        48.89378         0.51610
C         34.20643        48.21710        -0.06464
C         35.31416        50.24462         0.93761
C         33.96159        50.82361         1.06192
C         35.66839        53.15186         1.98773
C         33.69206        51.96385         1.83768
C         35.70550        54.54047         2.10092
C         37.73349        18.88998        -0.45955
C         36.55558        18.17004        -0.16308
C         37.71433        20.32796        -0.55438
C         36.41730        20.94515        -0.39548
C         37.93710        23.34823        -1.07911
C         36.11707        22.26727        -0.83555
C         37.87983        24.71335        -0.69736
C         36.69751        25.50080        -0.79569
C         37.77284        27.39784         0.24299
C         36.54307        26.74977        -0.14416
C         37.75168        28.77810         0.59080
C         36.50388        29.47556         0.61702
C         37.78121        31.65916         1.13421
C         36.46463        30.88131         1.04663
C         37.78555        33.11538         1.07288
C         36.47205        33.78791         1.43008
C         37.72811        35.95883         1.31629
C         36.46287        35.24282         1.05887
C         37.72245        37.43586         1.10529
C         36.57117        38.03795         0.34137
C         37.76854        40.19974         0.52576
C         36.56091        39.53793         0.45509
C         37.82558        41.65863         0.17123
C         36.54258        42.39100         0.43535
C         37.75167        44.48706         1.05440
C         36.53731        43.78434         0.58873
C         37.78891        45.99924         1.01632
C         36.57754        46.70454         0.54274
C         37.81942        48.84397         0.79573
C         36.59887        48.15162         0.58162
C         37.79378        50.27169         0.88352
C         36.55838        50.96729         1.09170
C         37.86488        53.12261         0.99188
C         36.67234        52.40219         1.33221
C         37.90305        54.54882         1.07101
C         36.79414        55.24096         1.58598
C         40.29924        16.12310        -0.96260
C         39.05379        16.79324        -0.81737
C         40.19449        18.90633        -0.24651
C         38.97328        18.15428        -0.56675
C         40.21618        20.36502        -0.46107
C         38.96161        21.06059        -0.67711
C         40.24635        23.20496        -0.46666
C         39.02651        22.51177        -0.72961
C         40.28387        24.59598        -0.21297
C         39.05903        25.32460        -0.17553
C         40.25777        27.36597         0.46366
C         39.02333        26.70137         0.18088
C         40.21847        28.75611         0.74609
C         39.00239        29.44749         0.79390
C         40.29563        31.69954         0.78468
C         39.01373        30.92814         0.75322
C         40.28426        33.15106         1.04458
C         39.01205        33.82193         1.08706
C         40.23793        35.94077         1.30825
C         39.02388        35.24517         1.25512
C         40.22404        37.41766         1.39065
C         39.00982        38.14196         1.01639
C         40.27108        40.20455         0.59836
C         39.01736        39.49707         0.75082
C         40.26002        41.65618         0.55634
C         39.07120        42.34139         0.64818
C         40.36641        44.51619         1.06593
C         39.04300        43.73470         1.09233
C         40.32634        46.00016         0.93833
C         39.09412        46.69891         0.92518
C         40.30941        48.81145         0.78909
C         39.07858        48.11279         0.81821
C         40.30402        50.27172         0.87663
C         39.03285        50.99997         0.80916
C         40.30385        53.11160         0.39820
C         39.07454        52.39767         0.71688
C         40.29529        54.54063         0.34679
C         39.11774        55.26840         0.70040
C         40.36498        57.35293         0.50524
C         39.17039        56.67154         0.73274
C         42.77458        16.18192        -1.14067
C         41.50512        16.76468        -0.75680
C         42.76649        18.91821        -0.33473
C         41.51471        18.14932        -0.25695
C         42.73534        20.29989        -0.38195
C         41.46400        21.00228        -0.48950
C         42.78760        23.20986        -0.60120
C         41.49680        22.46237        -0.66331
C         42.78127        24.63603        -0.20042
C         41.52655        25.30206         0.01066
C         42.77455        27.37842         0.53897
C         41.51330        26.67123         0.35139
C         42.76487        28.73132         0.85945
C         41.49279        29.44593         1.05501
C         42.81192        31.68212         1.01919
C         41.53484        30.94606         1.12245
C         42.78031        33.09703         1.05265
C         41.50863        33.83529         1.13855
C         42.73658        36.00677         1.17479
C         41.49923        35.26737         1.23842
C         42.78674        37.39113         0.99800
C         41.54241        38.16318         1.14017
C         42.67672        40.14704        -0.00479
C         41.46766        39.51943         0.61577
C         42.70098        41.63585         0.20221
C         41.52684        42.36509         0.49041
C         42.79804        44.49352         0.44079
C         41.53702        43.77342         0.59378
C         42.82028        45.99060         0.59981
C         41.53670        46.70882         0.76068
C         42.76383        48.84143         0.35137
C         41.54052        48.12301         0.69021
C         42.75884        50.20137         0.13451
C         41.60551        51.01729         0.50958
C         42.65936        53.11483        -0.39696
C         41.50790        52.43089         0.11143
C         42.67663        54.52144        -0.37355
C         41.50816        55.23640         0.05074
C         42.78663        57.37497         0.04988
C         41.53805        56.65889         0.19056
C         43.94966        16.81308        -0.91552
C         45.28551        18.89593        -0.35527
C         44.01914        18.10841        -0.12707
C         45.24930        20.31746        -0.40654
C         44.00409        21.03390        -0.38848
C         45.25529        23.15486        -0.45184
C         44.04109        22.43965        -0.43095
C         45.22382        24.64580        -0.68476
C         43.99035        25.31212        -0.11572
C         45.26874        27.36025         0.32461
C         44.03261        26.68956         0.27865
C         45.33142        28.73972         0.82278
C         44.00895        29.48082         1.10306
C         45.25899        31.65929         0.96419
C         44.02379        30.96381         1.02757
C         45.25157        33.08681         1.02571
C         44.01636        33.78249         1.10034
C         45.30314        35.98897         1.22560
C         43.99960        35.24188         1.31699
C         45.29798        37.47519         0.98881
C         44.00391        38.15372         0.77685
C         45.20229        40.18088        -0.06178
C         43.98970        39.47796         0.34306
C         45.18681        41.60211        -0.35658
C         43.89890        42.31017        -0.28148
C         45.21394        44.50550        -0.28366
C         43.92271        43.82191        -0.26584
C         45.15356        45.98350        -0.54407
C         43.98152        46.71912         0.05779
C         45.21720        48.80545        -0.21324
C         43.97143        48.08513         0.01586
C         45.20269        50.17349        -0.39234
C         43.85317        50.79954        -0.71382
C         45.21487        53.05117        -0.80315
C         43.87236        52.33050        -0.77969
C         45.23514        54.55700        -0.79854
C         43.90946        55.30352        -0.66805
C         43.92035        56.73515        -0.30519
C         47.70270        18.93577        -0.61798
C         46.51211        18.23514        -0.40340
C         47.70263        20.33485        -0.71957
C         46.47829        21.03901        -0.53151
C         47.71770        23.20185        -0.64774
C         46.48339        22.47004        -0.52406
C         47.74398        24.62600        -0.53200
C         46.52246        25.33281        -0.34872
C         47.76034        27.40148         0.06708
C         46.51235        26.69697        -0.01248
C         47.76868        28.82167         0.29011
C         46.53897        29.54137         0.56746
C         47.71346        31.69359         0.61950
C         46.50290        30.93550         0.74318
C         47.74314        33.07797         0.76197
C         46.50685        33.82886         0.94207
C         47.75998        35.99739         0.70291
C         46.51485        35.21533         0.91536
C         47.64792        37.29182        -0.08743
C         46.52713        38.15397         0.43872
C         47.60837        40.09845        -0.72785
C         46.40868        39.49269        -0.15099
C         47.61440        41.65187        -0.87353
C         46.35963        42.33840        -0.53735
C         47.66212        44.49237        -0.49307
C         46.39299        43.79086        -0.46120
C         47.67361        45.92010        -0.36989
C         46.46473        46.66666        -0.30238
C         47.70435        48.75933        -0.09553
C         46.47303        48.06084        -0.17707
C         47.65214        50.22308         0.27375
C         46.41744        50.94435        -0.25511
C         47.59760        53.07271         0.25589
C         46.42535        52.31354        -0.35555
C         47.60343        54.54196        -0.07584
C         46.52213        55.21384        -0.49130
C         49.99906        20.41839        -1.64930
C         48.90145        21.08021        -1.07773
C         50.10493        23.25507        -1.27214
C         48.92011        22.50795        -0.95433
C         50.22401        24.66252        -0.90150
C         49.00292        25.32406        -0.53017
C         50.23281        27.41473        -0.11892
C         48.98928        26.71963        -0.20805
C         50.23423        28.81766         0.16544
C         48.98844        29.51055         0.27497
C         50.20172        31.66163         0.72831
C         48.97383        31.00663         0.15465
C         50.22609        33.13142         0.61225
C         49.00945        33.78143         0.67352
C         50.21724        35.86535        -0.03806
C         49.03276        35.25073         0.62185
C         50.19446        37.31684        -0.36765
C         48.93592        38.07936        -0.21869
C         50.16608        40.11169        -0.89730
C         48.90602        39.39598        -0.56594
C         50.15407        41.64210        -0.98846
C         48.89016        42.37422        -0.78734
C         50.15354        44.49854        -0.60999
C         48.89735        43.76893        -0.59579
C         50.12962        45.90174        -0.51691
C         48.91368        46.63183        -0.35942
C         50.17436        48.80199        -0.23906
C         48.91700        48.06253        -0.22134
C         50.15454        50.24418        -0.18278
C         48.93240        50.96092        -0.03609
C         50.12519        53.05660        -0.24248
C         48.91212        52.35923        -0.04927
C         51.04994        21.15860        -2.18656
C         53.04041        23.65069        -1.81864
C         51.07140        22.54446        -2.01715
C         52.80388        24.76475        -0.98145
C         51.48073        25.36180        -0.77234
C         52.69583        27.41755        -0.03614
C         51.46842        26.71908        -0.30477
C         52.69826        28.81422         0.26152
C         51.46895        29.50188         0.32752
C         52.74398        31.68347         0.60572
C         51.48854        30.92061         0.71790
C         52.72997        33.09477         0.52048
C         51.48884        33.82236         0.49053
C         52.71503        35.92066         0.02598
C         51.50813        35.19329         0.19200
C         52.69478        37.33655        -0.22111
C         51.47273        38.05103        -0.39127
C         52.66326        40.18383        -0.57829
C         51.44909        39.43594        -0.59177
C         52.64606        41.62501        -0.63219
C         51.42708        42.35392        -0.73474
C         52.66115        44.45467        -0.50539
C         51.41118        43.76526        -0.65167
C         52.68234        45.92536        -0.65274
C         51.37542        46.67410        -0.68086
C         52.63826        48.82688        -0.40747
C         51.38407        48.12722        -0.41030
C         52.63277        50.24542        -0.35728
C         51.37736        50.96326        -0.31225
C         51.32410        52.37729        -0.36055
C         55.34122        23.43818        -1.13828
C         54.26521        22.97880        -1.88658
C         55.23526        24.65198        -0.42937
C         53.98199        25.34628        -0.40643
C         55.11563        27.39225         0.41490
C         53.93490        26.71731         0.02513
C         55.15494        28.80964         0.55363
C         53.93657        29.52578         0.46673
C         55.19362        31.67571         0.49977
C         53.95563        30.96291         0.53577
C         55.19378        33.09944         0.39546
C         53.95941        33.81111         0.36058
C         55.18392        35.94138         0.01878
C         53.95501        35.22608         0.15137
C         55.16670        37.35228        -0.18536
C         53.92331        38.05607        -0.29034
C         55.12878        40.20444        -0.45155
C         53.89299        39.47779        -0.43935
C         55.10865        41.61652        -0.41138
C         53.88233        42.33383        -0.44852
C         55.11427        44.50217         0.06282
C         53.86071        43.76192        -0.35789
C         55.11524        45.98355        -0.22608
C         53.92297        46.67869        -0.37654
C         55.11501        48.82883        -0.28378
C         53.89050        48.11316        -0.39076
C         55.07126        50.25252        -0.27123
C         53.87777        50.93308        -0.31710
C         57.62859        24.55810         0.31970
C         56.40324        25.22494         0.21549
C         57.66289        27.37662         0.90886
C         56.31369        26.59879         0.69620
C         57.65020        28.83207         0.72096
C         56.41118        29.52905         0.65357
C         57.66467        31.66497         0.47426
C         56.42418        30.95052         0.54259
C         57.66729        33.09419         0.34579
C         56.42920        33.81859         0.28973
C         57.66339        35.94554        -0.02366
C         56.42566        35.22873         0.10393
C         57.66138        37.35296        -0.28782
C         56.39827        38.07194        -0.34894
C         57.58395        40.18063        -0.91660
C         56.36206        39.46739        -0.50554
C         57.57171        41.67919        -0.88711
C         56.41736        42.32495        -0.14577
C         57.60180        44.52725        -0.34977
C         56.39123        43.81588        -0.33328
C         57.59431        45.96695        -0.20079
C         56.35941        46.69047        -0.18659
C         57.61752        48.79288        -0.11504
C         56.36383        48.11366        -0.20255
C         58.83812        25.23417         0.56401
C         60.10714        27.37010         0.56174
C         58.89610        26.62673         0.67908
C         60.10130        28.74454         0.55724
C         58.88550        29.50942         0.59183
C         60.10766        31.68593         0.41562
C         58.89562        30.94822         0.49167
C         60.10770        33.06007         0.31495
C         58.89714        33.80130         0.26365
C         60.10414        35.97313         0.02744
C         58.89683        35.23934         0.09582
C         60.10078        37.33394        -0.22579
C         58.89574        38.03475        -0.43195
C         60.13279        40.28164        -0.80110
C         58.91140        39.44711        -0.88389
C         60.11694        41.62786        -0.87071
C         58.87500        42.43125        -0.92259
C         60.05803        44.58444        -0.35622
C         58.86825        43.85639        -0.49609
C         60.04746        45.96171        -0.15557
C         58.82193        46.67469        -0.12639
C         58.80119        48.10083        -0.05207
O         41.20509        50.80200         1.90664
O         37.51890        36.91557         2.44522
O         25.08001        46.50072        -3.28108
O         43.22160        45.11306         1.72025
O         37.14432        31.11336         2.34886
O         50.02468        36.28059        -1.44403
O         41.42376        30.16722         2.35800
O         34.65737        52.49463         2.69563
O         52.05716        23.24451        -2.72479
O         42.18236        22.93914        -1.92560
O         27.02686        42.40619         0.24439
O         50.17386        40.78704        -2.19175
O         37.53943        45.26844         2.27240
O         39.80458        43.97275         2.30950
O         40.96747        38.01617         2.48989
O         48.65992        35.98092         1.85696
O         27.75499        39.84807        -2.13601
O         44.55698        55.09576        -1.97124
O         24.56906        39.99269        -0.05475
O         43.57820        43.13145        -1.50169
O         56.86744        26.86784         2.01687
O         46.26524        38.14205         1.87218
O         44.81267        28.92125         2.18832
O         34.53119        47.59589        -1.35450
O         39.64997        31.37966        -0.50496
O         44.55431        52.63680        -2.04347
O         58.16570        39.62990        -2.13731
O         28.05352        33.60337         1.88525
O         26.53856        26.11759         2.38281
O         26.40793        37.37778        -2.23786
O         30.84006        45.21610        -2.34235
O         28.81303        39.05310         1.25208
O         35.66116        25.02651        -1.61660
O         58.00454        42.27696        -2.12265
O         40.79997        18.41277         1.00674
O         36.91176        22.80295        -1.86728
O         44.73583        35.63445         2.53430
O         50.71414        31.15474         1.98699
O         52.08141        46.34218        -1.93557
O         47.45748        40.74514        -2.01624
O         42.50904        39.97001        -1.46246
H         43.13021        40.58156        -1.91532
O         47.50913        50.24876         1.74820
H         48.27316        49.76420         2.12781
O         32.76309        28.70687         2.36816
H         31.93347        28.25217         2.62954
O         30.42016        32.93891         2.51432
H         29.49997        32.98420         2.87051
O         44.03296        17.72838         1.29184
H         43.11488        17.48826         1.54391
O         56.70651        42.10290         1.28231
H         56.05532        42.65841         1.77720
O         49.06140        31.27640        -1.29374
H         48.27569        30.87496        -1.72172
O         45.08922        24.79917        -2.14892
H         44.27306        24.32235        -2.41897
O         47.26253        36.90086        -1.43504
H         48.08581        36.60413        -1.89473
O         55.09424        44.40365         1.56122
H         55.78622        45.01735         1.89259
O         47.41204        53.01150         1.70286
H         47.40738        52.05334         1.96108
O         23.67922        33.88900         1.33865
H         23.70911        32.98804         1.72544
O         36.39959        33.73849         2.89800
H         36.55229        32.79465         3.15102
O         44.90704        46.06868        -2.00287
H         45.60222        45.54434        -2.45544
O         37.94772        41.68613        -1.30885
H         37.21718        41.14268        -1.67459
O         36.90120        37.74701        -1.06947
H         36.16774        38.08828        -1.62391
O         43.50817        50.34403        -2.06047
H         43.99513        50.93163        -2.68498
O         29.08432        29.48144        -1.49378
H         29.15766        28.54556        -1.77764
O         27.21988        43.37279        -3.30700
H         27.28654        44.19691        -3.83463
O         34.74129        22.64595         2.01041
H         34.14375        22.24306         2.67564
H         21.98152        26.79347         0.26910
H         21.96490        29.21761        -0.15648
H         22.15168        31.01440        -1.04538
H         22.07756        33.44538        -1.14809
H         22.00828        35.40991        -0.79131
H         22.04746        37.82258        -1.27416
H         22.25394        39.67049        -2.46226
H         22.38139        42.08181        -2.78032
H         22.23946        43.96400        -1.88287
H         22.16587        46.40345        -1.70292
H         25.29447        23.44149         0.86582
H         23.21634        24.68469         0.55869
H         25.48987        49.76634        -0.95442
H         23.40228        48.60761        -1.37180
H         26.99131        22.54331         1.38618
H         27.07033        50.74546        -0.75341
H         29.09898        21.31472         1.29813
H         29.05062        51.88843         0.03465
H         32.83129        19.15767         0.79717
H         30.78978        20.36993         1.27837
H         32.30352        53.47493         2.52191
H         30.38535        52.53142         1.25806
H         34.51806        18.20255         0.50873
H         34.89319        55.06547         2.61916
H         36.60062        17.07465        -0.09845
H         36.80281        56.33439         1.67282
H         40.29729        15.08129        -1.31519
H         38.14048        16.21948        -1.02798
H         40.39244        58.44889         0.58608
H         38.27587        57.25963         0.97414
H         42.75940        15.20495        -1.64823
H         42.79270        58.45639         0.24976
H         44.88796        16.33083        -1.22685
H         44.85359        57.29814        -0.43963
H         48.64190        18.37148        -0.69284
H         46.55102        17.14276        -0.29385
H         48.51757        55.11088         0.14521
H         46.59624        56.29469        -0.67966
H         49.99221        19.32802        -1.77430
H         50.13740        54.15345        -0.28176
H         51.84734        20.67119        -2.76163
H         52.24435        52.96089        -0.49342
H         56.29625        22.89926        -1.18068
H         54.36674        22.10816        -2.54681
H         56.00228        50.83105        -0.21421
H         53.89855        52.03031        -0.29106
H         57.68615        23.48594         0.08556
H         57.64639        49.89015        -0.09558
H         59.77806        24.66573         0.50872
H         61.05746        26.82464         0.46807
H         61.06253        29.26765         0.47217
H         61.07308        31.16419         0.44083
H         61.07412        33.57774         0.25992
H         61.07065        35.46750         0.14829
H         61.06220        37.85828        -0.30733
H         61.10389        39.77532        -0.69882
H         61.07625        42.16200        -0.80400
H         61.02708        44.07353        -0.43802
H         60.99445        46.51364        -0.07617
H         59.75526        48.64275         0.01799
