         294
 CSIRO Nanostructure Databank - Neutral Graphene Oxide Data Set
C          1.22896         1.76956        -0.02399
C          1.14395         3.16850         0.02896
C          2.42115         1.09629        -0.23403
C          2.35701         3.96705         0.17806
C          1.13136         6.23886         0.58207
C          1.16604         7.56344         0.82239
C          2.33621         5.47567         0.15524
C          2.43746         8.32528         0.95978
C          1.28586        10.62497         1.04106
C          1.32388        11.95841         1.25070
C          2.48629         9.80708         0.92660
C          2.60675        12.68575         1.59860
C          1.50947        14.97893         1.63052
C          1.48698        16.36899         1.48063
C          2.57481        14.17550         1.21711
C          2.71713        17.10921         1.18532
C          2.71283        18.56216         0.90127
C          3.63866         1.85042        -0.68255
C          3.66939         3.26288        -0.11706
C          4.95708         1.19060        -0.37399
C          4.87905         4.04291        -0.46934
C          3.65055         6.19049         0.15456
C          3.73959         7.58588         0.73130
C          4.97238         5.43446         0.11387
C          4.96936         8.36512         0.43012
C          3.69710        10.44846         0.75013
C          3.82112        11.89837         1.06534
C          4.91184         9.73672         0.38419
C          5.04518        12.61637         0.61185
C          3.67432        14.81697         0.40623
C          3.88841        16.31024         0.68707
C          5.01037        14.11658         0.56658
C          4.99052        17.00165        -0.05664
C          3.75065        19.19011         0.32695
C          5.01718        18.53057        -0.17168
C          6.10851         1.93231        -0.52567
C          6.01689         3.37040        -0.82656
C          7.40846         1.46009        -0.12971
C          7.25054         4.10866        -1.22026
C          6.00242         6.34257        -0.59817
C          6.28365         7.57726         0.26293
C          7.26644         5.59281        -1.04449
C          7.41114         8.40277        -0.28248
C          6.05949        10.43814        -0.34421
C          6.07177        12.00332        -0.35890
C          7.40435         9.81341         0.19344
C          7.39981        12.69088        -0.07481
C          6.19337        14.86175         0.07265
C          6.08407        16.26839        -0.39783
C          7.44755        14.14724        -0.40641
C          7.36168        16.80821        -0.98396
C          6.23420        18.97902         0.67795
C          7.47255        19.06293         0.22763
C          8.58590         2.14355        -0.42582
C          8.49933         3.24467        -1.46167
C          9.83404         1.65386         0.00563
C          9.81534         4.09732        -1.76175
C          8.58442         6.29184        -0.88705
C          8.56265         7.81433        -1.03863
C          9.83607         5.54704        -1.20302
C          9.90528         8.50405        -0.77894
C          8.59373        10.62353        -0.34770
C          8.65680        11.99559         0.35398
C          9.88321         9.87462        -0.44480
C          9.93381        12.77394         0.08180
C          8.63002        14.93184         0.16365
C          8.60117        16.38686        -0.21305
C          9.93701        14.22622         0.51807
C          9.88213        17.14495        -0.24615
C          8.68373        19.43418        -0.18567
C          9.89315        18.61785        -0.37148
C         11.06042         2.19572        -0.40199
C         11.17709         3.34637        -1.39521
C         12.26331         1.60750         0.01042
C         12.26808         4.31063        -0.81958
C         11.00521         6.41901        -1.68500
C         11.08344         7.83282        -1.13337
C         12.33921         5.65844        -1.53600
C         12.34424         8.60157        -1.56987
C         11.06079        10.72043        -0.67862
C         11.09259        12.11861        -0.16512
C         12.31771        10.07484        -1.15560
C         12.42154        12.82392         0.05757
C         11.14545        14.99811         0.02159
C         11.06116        16.45625        -0.10864
C         12.31110        14.31683        -0.18201
C         12.31299        17.29127         0.11018
C         11.06315        19.26075        -0.67452
C         12.35421        18.49178        -0.85460
C         13.53645         2.17857        -0.27972
C         13.59934         3.56705        -0.74175
C         14.71168         1.49702         0.02851
C         14.80451         4.19234        -0.87033
C         13.62215         6.41916        -1.38357
C         13.61036         7.88215        -1.15782
C         14.86700         5.66181        -1.04118
C         14.68639         8.55345        -0.61136
C         13.58753        10.75736        -0.81656
C         13.60586        12.15142        -0.61401
C         14.73478         9.99375        -0.56026
C         14.91460        12.83380        -0.94378
C         13.55547        15.06049        -0.47391
C         13.60401        16.48296         0.01103
C         14.83478        14.34365        -0.78085
C         14.85457        17.24967        -0.19097
C         13.63302        19.31368        -0.68234
C         14.83235        18.71861        -0.42972
C         16.01278         2.05945        -0.18179
C         16.11495         3.41262        -0.88534
C         17.14396         1.34192         0.12275
C         17.36757         4.25608        -0.42058
C         16.00371         6.38368        -0.40503
C         15.79477         7.79526         0.10538
C         16.98676         5.52950         0.39034
C         17.14481         8.53348        -0.01600
C         15.84804        10.73470         0.08230
C         15.94237        12.17568        -0.06344
C         17.06014         9.95296         0.55996
C         17.08735        12.93204         0.57821
C         16.14281        15.05536        -0.57785
C         16.13099        16.53697        -0.47284
C         17.29701        14.32096        -0.00924
C         17.32320        17.26822         0.04221
C         16.14165        19.38511        -0.44728
C         17.32059        18.72270        -0.25960
C         18.50639         1.97395        -0.07317
C         18.32295         3.40538         0.40370
C         19.66946         1.29645         0.61285
C         19.36191         4.12141         1.20598
C         18.29197         6.28931         0.66981
C         18.27741         7.81053         0.74939
C         19.41826         5.60084         1.00366
C         19.64325         8.46432         0.39793
C         18.34478        10.68340         0.98637
C         18.38733        12.13502         0.52100
C         19.62268         9.93280         0.74959
C         19.62936        12.75580         0.55321
C         18.47624        14.98064         0.17165
C         18.57737        16.47225         0.18327
C         19.70995        14.23832         0.49681
C         19.85833        17.12885        -0.15665
C         18.66675        19.39752        -0.08593
C         19.85783        18.51406        -0.43548
C         20.61810         1.93565         1.31261
C         20.52842         3.36155         1.82970
C         21.82218         4.13626         1.80490
C         20.79766         6.21963         0.84460
C         20.80672         7.73490         1.15786
C         21.89902         5.44352         1.52921
C         22.08202         8.44380         0.76962
C         20.90034        10.59823         1.17342
C         20.86641        12.02188         0.62330
C         22.11186         9.78225         0.76606
C         22.04444        12.66516         0.14718
C         21.02926        14.92425         0.14769
C         21.02469        16.34613        -0.32274
C         22.12821        14.00291        -0.16053
C         22.18399        16.96646        -0.81429
C         21.03666        19.10258        -0.91276
C         22.18009        18.32830        -1.12171
O         17.84099        16.97784         1.38500
O          3.23020         7.74932         2.08261
O         11.50048        10.81235        -2.13110
O          3.24898         3.42807         1.26701
O          9.43164         5.75353         0.17333
O          5.01309        12.08621         1.95251
O         20.54277        14.81992         1.53979
O         16.00831        10.20121         1.49448
O          3.84277        16.68066         2.08513
O         14.04053        14.93253        -1.85905
O          2.89582         6.06699        -1.08552
O          7.05192         5.01580        -2.37566
O         16.43208        15.91652        -1.75165
O         16.36452         3.10067        -2.28896
O         13.15656         5.86473        -2.70069
O         18.13221         3.58674         1.82423
O          8.25660        15.92412         1.15222
O          5.92275        14.71968         1.51388
O         14.45275        16.76154         1.16915
O          7.41662        17.45664        -2.02168
O          5.16272        18.93914        -1.53028
H          5.98301        18.53161        -1.90687
O         16.00979         6.18297        -1.83593
H         15.56759         2.65278        -2.64466
O         19.92723         8.36836        -1.02527
H         20.33702         7.47942        -1.20012
O          8.33331         8.08514        -2.47258
H          9.07960         7.65058        -2.96219
O         12.67986        12.69174         1.49922
H         11.93429        13.13021         1.97192
O         17.36913         8.63401        -1.42351
H         18.34320         8.65643        -1.60790
O          8.29985        10.98276        -1.72741
H          8.24265        10.14580        -2.25169
O         15.24025        12.58330        -2.34148
H         14.73714        13.23651        -2.87717
O          3.32626        14.66633        -1.00236
H          2.41758        15.00932        -1.13453
O         11.71773         2.78117        -2.59696
H         11.05303         2.94618        -3.31125
O         18.25326        10.89754         2.43980
H         17.48034        11.50741         2.57951
O         16.28867         5.14684         1.58254
H         15.98878         5.98000         2.02122
O         20.94199        10.64911         2.65369
H         20.05172        10.97713         2.93938
O         12.39043        17.94786        -2.20114
H         12.26767        18.68209        -2.83762
O          5.38807         5.17990         1.46912
H          4.71584         4.57772         1.86916
O          7.53094        14.32886        -1.84811
H          6.85375        13.71993        -2.23947
O         16.76169        13.15667         2.00702
H         17.37797        13.83805         2.35446
O         12.35748         8.61365        -3.03658
H         11.86987         9.43116        -3.30339
O          8.69510        11.84680         1.80983
H          9.00410        12.71228         2.18624
O         11.90114         4.68095         0.52895
H         11.83673         3.86652         1.07180
O         18.12567         4.67013        -1.56774
H         17.50159         5.15162        -2.16685
O          6.74389         7.18198         1.57158
H          6.95788         8.01372         2.06184
O          2.68733        12.66323         3.04693
H          3.64239        12.73984         3.27708
O         17.99871         8.09844         2.14013
H         18.80839         7.85445         2.65974
O         20.61842         7.87183         2.58087
H         20.81696         8.81902         2.82059
O          5.89419        10.02883        -1.72629
H          5.81225         9.04495        -1.77669
O         20.24140         3.21737         3.25134
H         19.26674         3.08899         3.32010
O         15.37869         7.65371         1.47962
H         15.49541         8.53281         1.92045
O         12.18792        17.80989         1.44839
H         13.06263        17.68395         1.89089
O         10.73951         6.61872        -3.11560
H         11.52465         7.14342        -3.45103
O         18.77404        19.73105         1.31312
H         18.61200        18.89958         1.81648
O          8.18825         2.50563        -2.66180
H          8.11016         3.16658        -3.38617
O          3.52489         2.02420        -2.13899
H          3.72774         1.16370        -2.56170
O         18.83759         1.96435        -1.48277
H         18.13537         2.46234        -1.97108
O          5.40190         6.89805        -1.78578
H          5.50914         6.23097        -2.50483
O         10.03205        14.21543         1.98072
H          9.60667        15.05580         2.28461
O          5.61047        12.46318        -1.65775
H          5.75076        11.70749        -2.28084
O         21.11141         6.07735        -0.58841
H         20.82165         5.18614        -0.88160
O          7.30827         9.75923         1.63181
H          7.47011        10.65652         2.01786
O          9.78891         4.21789        -3.19754
H         10.29173         5.02741        -3.47436
H          0.29961         1.18767         0.07618
H          0.16173         3.66071         0.02260
H          2.42410        -0.00252        -0.29243
H          0.16595         5.71071         0.59746
H          0.22549         8.08831         1.04764
H          0.31052        10.13229         0.91283
H          0.38071        12.52024         1.31955
H          0.63270        14.49572         2.08906
H          0.57258        16.93022         1.72061
H          1.81338        19.13184         1.18302
H          4.99659         0.15376        -0.00899
H          3.68023        20.27108         0.13313
H          7.46530         0.53009         0.45784
H          6.05690        19.04828         1.76715
H          9.84693         0.78949         0.68912
H          8.81939        20.51080        -0.40718
H         12.22922         0.66822         0.58488
H         11.06474        20.35373        -0.81333
H         14.64623         0.48625         0.46030
H         13.59348        20.39447        -0.89740
H         17.05026         0.32761         0.54297
H         16.15479        20.47182        -0.62734
H         19.80430         0.22657         0.38551
H         18.71577        20.35452        -0.66262
H         21.46388         1.35046         1.70908
H         22.70220         3.61890         2.21850
H         22.86545         5.96034         1.63713
H         22.97531         7.86087         0.49911
H         23.05500        10.29255         0.52616
H         22.95388        12.06627         0.00301
H         23.06099        14.39642        -0.58804
H         23.10797        16.38792        -0.94907
H         21.05765        20.18098        -1.12574
H         23.09548        18.80008        -1.50450
