         204
 CSIRO Nanostructure Databank - Neutral Graphene Oxide Data Set
C        -11.12014         0.68646        -0.54000
C         -9.90263         1.44767        -0.36225
C         -8.66524         0.71986        -0.29453
C         -7.44208         1.42586        -0.09130
C         -6.22880         0.69137         0.07675
C         -5.04128         1.39014         0.68236
C         -3.72772         0.66806         0.48373
C         -2.46170         1.46215         0.27808
C         -1.20064         0.69630         0.58146
C          0.02601         1.42441         0.60716
C          1.26608         0.70068         0.54075
C          2.48810         1.42883         0.37871
C          3.71306         0.71479         0.19458
C          4.91747         1.45072        -0.04323
C          6.16527         0.70955        -0.43791
C          7.40729         1.43307         0.02054
C          8.70299         0.67761        -0.01966
C          9.93671         1.43923        -0.28984
C         11.12667         0.65237        -0.53669
C         -9.90795         2.83856        -0.25541
C         -8.69017         3.57943        -0.11746
C         -7.47342         2.84984        -0.03783
C         -6.21182         3.59229        -0.03398
C         -4.94248         2.83349         0.21675
C         -3.75908         3.60942         0.69017
C         -2.48427         2.85899         0.88781
C         -1.17447         3.63332         1.00390
C          0.04780         2.84040         0.60952
C          1.25031         3.56098         0.44100
C          2.48209         2.84818         0.32215
C          3.70665         3.57310         0.12500
C          4.93748         2.84170        -0.05874
C          6.19747         3.57403        -0.22608
C          7.43026         2.88855        -0.18347
C          8.66664         3.57642        -0.27462
C          9.90205         2.81674        -0.34079
C         -8.66323         5.00377        -0.10309
C         -7.45242         5.75079         0.00337
C         -6.21800         5.05081         0.10780
C         -4.97953         5.74633         0.22074
C         -3.77426         5.05712         0.46152
C         -2.50643         5.71560         0.14191
C         -1.21889         4.96080         0.25849
C          0.03930         5.73348         0.28407
C          1.25002         5.00717         0.35065
C          2.47964         5.71567         0.20563
C          3.69582         4.97448         0.06050
C          4.91885         5.68865        -0.35305
C          6.20299         4.97594        -0.34385
C          7.42795         5.70041        -0.39473
C          8.64392         4.98610        -0.37972
C         -7.41478         7.17724        -0.02149
C         -6.19384         7.88250        -0.01968
C         -4.95534         7.17978         0.07807
C         -3.70992         7.88282         0.04488
C         -2.47440         7.18048         0.06438
C         -1.23878         7.85569         0.02586
C          0.01358         7.13255         0.10922
C          1.25327         7.84718         0.09251
C          2.46530         7.13875         0.15166
C          3.76323         7.88516         0.33466
C          4.93523         7.18395        -0.31722
C          6.24408         7.87941        -0.28269
C          7.40794         7.15329        -0.38399
C         -6.14245         9.32148        -0.11230
C         -4.95366        10.00015        -0.12703
C         -3.69055         9.31178        -0.06173
C         -2.45632         9.98422        -0.11390
C         -1.22659         9.28809        -0.06322
C          0.03130         9.97016        -0.10871
C          1.24371         9.29382        -0.03697
C          2.50689         9.99348        -0.14204
C          3.71277         9.34350        -0.05120
C          4.99177        10.00408        -0.18614
C          6.18133         9.32355        -0.23337
C        -11.10658        -0.67396        -0.64755
C         -9.87865        -1.43289        -0.60323
C         -8.63881        -0.69326        -0.42827
C         -7.40633        -1.37645        -0.40242
C         -6.19130        -0.70104        -0.08589
C         -4.94450        -1.43874         0.13783
C         -3.70705        -0.70472         0.36734
C         -2.44806        -1.43574         0.43816
C         -1.21367        -0.70722         0.56769
C          0.02562        -1.43790         0.68425
C          1.26800        -0.71004         0.61529
C          2.51400        -1.42476         0.49744
C          3.72261        -0.70405         0.23894
C          4.96159        -1.43450         0.10118
C          6.17565        -0.75247        -0.08954
C          7.41011        -1.46087        -0.18196
C          8.65299        -0.77149        -0.27861
C          9.86017        -1.47534        -0.49584
C         11.09207        -0.70984        -0.61505
C         -9.87770        -2.82009        -0.68183
C         -8.66494        -3.58439        -0.65299
C         -7.39093        -2.82003        -0.66080
C         -6.09994        -3.55192        -0.40462
C         -4.90085        -2.82113         0.05867
C         -3.67641        -3.56489         0.29203
C         -2.44023        -2.84046         0.45732
C         -1.20927        -3.57340         0.67439
C          0.01449        -2.83974         0.78692
C          1.31454        -3.52996         1.15269
C          2.53033        -2.82976         0.60397
C          3.72730        -3.56340         0.39301
C          4.95224        -2.86194         0.16058
C          6.16787        -3.58340        -0.03144
C          7.39786        -2.88589        -0.20182
C          8.62364        -3.60486        -0.40782
C          9.83469        -2.87957        -0.57963
C         -8.64113        -4.96714        -0.69011
C         -7.41326        -5.73075        -0.58870
C         -6.20984        -4.99869        -0.09483
C         -4.92900        -5.72069         0.18527
C         -3.66287        -4.96488         0.29463
C         -2.44825        -5.70638         0.52252
C         -1.23019        -4.99019         0.74202
C          0.00808        -5.70624         1.28018
C          1.29547        -5.01364         0.88658
C          2.45946        -5.70173         0.59271
C          3.70924        -4.99144         0.38172
C          4.91568        -5.70639         0.12784
C          6.14569        -5.00791        -0.05623
C          7.36937        -5.72679        -0.28440
C          8.58147        -5.01836        -0.45112
C         -7.33621        -7.07571        -0.79921
C         -6.01300        -7.79751        -0.87710
C         -4.87920        -7.15048        -0.11660
C         -3.68450        -7.83002         0.08137
C         -2.50128        -7.13158         0.49893
C         -1.28115        -7.92944         0.72003
C          0.01896        -7.21458         1.01187
C          1.26486        -7.88404         0.58628
C          2.46005        -7.15608         0.45152
C          3.67481        -7.84611         0.16123
C          4.90345        -7.13483         0.03536
C          6.12179        -7.84351        -0.21441
C          7.32858        -7.14422        -0.35229
C         -6.06998        -9.27727        -0.59791
C         -4.93270        -9.95589        -0.33316
C         -3.65914        -9.27775        -0.12564
C         -2.47110        -9.97057        -0.09979
C         -1.22917        -9.31533         0.19844
C         -0.01807        -9.96966         0.13531
C          1.23472        -9.28151         0.29443
C          2.44370        -9.95895         0.04067
C          3.66309        -9.26911         0.00315
C          4.90231        -9.95944        -0.23752
C          6.08126        -9.27819        -0.33153
O         -5.33645         1.39522         2.11523
H         -4.58395         1.85368         2.56225
O         -0.96598         3.98178         2.39974
H         -1.82102         3.82482         2.86680
O          4.05991         7.84824         1.77138
H          3.33894         8.32110         2.23800
O         -1.86237         4.99042        -1.04145
O          1.44559        -3.36703         2.61361
H          0.84459        -4.03712         3.02575
O         -5.29324         3.09358        -1.15078
O         -2.40935         1.74481        -1.16537
H         -2.43763         0.89066        -1.64586
O         -0.09770        -5.54688         2.73640
H         -0.55916        -6.36058         3.06182
O         -5.62612        -7.68570        -2.30535
H         -4.82489        -8.23777        -2.43279
O          6.23237         0.76861        -1.90875
H          5.39902         0.39059        -2.26111
O          4.66475         6.51895        -1.57714
O         -6.49098        -3.21768        -1.77224
O         -5.89751        -5.33771         1.28872
O         -0.70138        -7.90469         2.09405
O         -3.32500         3.09477         2.05688
O          8.01546         1.00529         1.26553
H         12.02380        -1.26601        -0.79722
H         12.08206         1.18220        -0.66933
H         10.83625         3.37092        -0.52143
H          9.59388         5.53893        -0.43460
H          8.37537         7.67942        -0.39429
H          7.12431         9.88686        -0.30329
H          4.99826        11.10322        -0.25146
H          2.48353        11.07584        -0.34580
H          0.03174        11.06650        -0.20849
H         -2.44567        11.08159        -0.19926
H         -4.94930        11.09783        -0.20148
H         -7.09069         9.87581        -0.17529
H         -8.35924         7.73711        -0.09227
H         -9.61429         5.54910        -0.19773
H        -10.86218         3.38379        -0.31123
H        -12.07455         1.23198        -0.58330
H        -12.05093        -1.22354        -0.77691
H        -10.83563        -3.35643        -0.76192
H         -9.58686        -5.51921        -0.80383
H         -8.23079        -7.62854        -1.12628
H         -7.01972        -9.81261        -0.74631
H         -4.94650       -11.05283        -0.24046
H         -2.45969       -11.05167        -0.30586
H          0.00864       -11.02836        -0.16444
H          2.42500       -11.04207        -0.15074
H          4.88082       -11.05385        -0.34421
H          7.02257        -9.81662        -0.51493
H          8.25976        -7.70090        -0.53517
H          9.51127        -5.58096        -0.62309
H         10.77089        -3.43157        -0.75100
