         276
 CSIRO Nanostructure Databank - Neutral Graphene Oxide Data Set
C        -11.00746         0.69700        -0.94030
C         -9.79943         1.52595        -0.95442
C         -8.50719         0.79963        -1.10967
C         -7.22027         1.55960        -1.09715
C         -5.90406         0.87367        -0.73442
C         -5.13347         1.46495         0.45441
C         -3.65359         0.96924         0.33873
C         -2.71161         1.46369         1.39955
C         -1.53442         0.85413         1.72872
C         -0.43207         1.75005         2.06190
C          1.50163         0.58428         1.99312
C          2.66709         1.44770         1.67652
C          3.96550         0.74450         1.48438
C          5.13450         1.49486         0.91388
C          6.36876         0.71120         0.57436
C          7.33652         1.20059        -0.51525
C          8.77801         0.74684        -0.25727
C          9.79561         1.38893        -1.15778
C         10.80207         0.51254        -1.81590
C         -9.80934         2.87052        -0.79451
C         -8.63283         3.74918        -1.16195
C         -7.21079         3.08072        -1.08159
C         -6.26188         3.65374        -0.05191
C         -5.17943         2.97574         0.39866
C         -4.00660         3.65502         1.07192
C         -2.71152         2.83777         0.75466
C         -1.37138         3.63379         0.68532
C         -0.25302         2.97240         1.49929
C          1.08189         3.55550         1.10083
C          2.37869         2.76838         0.97272
C          3.56775         3.49941         0.28344
C          4.94763         2.88745         0.45285
C          5.94128         3.45675        -0.50646
C          7.15444         2.67083        -0.91786
C          8.29415         3.44492        -1.44757
C          9.44926         2.62832        -1.98626
C         -8.65180         5.11599        -0.51629
C         -7.46926         5.86273        -0.43934
C         -6.16470         5.10095        -0.44521
C         -5.03289         5.87425         0.16993
C         -3.78645         5.09005         0.50864
C         -2.75940         5.83082         1.37598
C         -1.42088         5.06909         1.28400
C         -0.09941         5.79772         1.38604
C          1.14845         5.05852         0.96551
C          2.32830         5.71601         0.74657
C          3.62117         4.99362         0.56329
C          4.81433         5.68500        -0.04868
C          5.94778         4.91774        -0.62732
C          6.99453         5.55772        -1.25899
C          8.16636         4.79036        -1.66069
C         -7.40993         7.25680        -0.49172
C         -6.08369         7.90658        -0.77921
C         -4.98099         7.21583         0.00225
C         -3.69401         7.98390         0.15106
C         -2.65293         7.32496         1.05069
C         -1.36248         8.06900         1.19403
C         -0.07426         7.35150         1.63749
C          1.21759         8.03184         1.12114
C          2.44655         7.20548         0.82191
C          3.64772         7.87125         0.17785
C          4.53850         7.02103        -0.70137
C          5.79111         7.72154        -1.19092
C          6.91849         6.99849        -1.47424
C         -6.04754         9.41288        -0.69466
C         -4.99326        10.10901        -0.25292
C         -3.87734         9.47551         0.54877
C         -2.51953        10.12599         0.37448
C         -1.33051         9.45198         0.61454
C         -0.07785        10.06821         0.38084
C          1.16634         9.40687         0.53630
C          2.31052        10.02218         0.03560
C          3.59606         9.34441        -0.13839
C          4.59054         9.87144        -1.10478
C          5.65339         9.13352        -1.51042
C        -10.99166        -0.63121        -1.18545
C         -9.69717        -1.37754        -1.43584
C         -8.60901        -0.63801        -0.61193
C         -7.27813        -1.37836        -0.56399
C         -5.99923        -0.61661        -0.48094
C         -4.65617        -1.29892        -0.56239
C         -3.37588        -0.50154        -0.12719
C         -2.53343        -1.30600         0.90956
C         -1.31828        -0.62961         1.56815
C          0.01610        -1.39579         1.63079
C          1.35432        -0.70422         1.60763
C          2.60315        -1.43498         1.20072
C          3.92948        -0.73829         1.24532
C          5.23748        -1.53839         1.44625
C          6.44823        -0.75506         0.87748
C          7.68095        -1.51666         0.38158
C          8.91948        -0.73662         0.04724
C         10.18918        -1.45939        -0.43410
C         10.86820        -0.81157        -1.61244
C         -9.71739        -2.84128        -1.05609
C         -8.53241        -3.56393        -0.90958
C         -7.22127        -2.80394        -1.08636
C         -6.03572        -3.50919        -0.51547
C         -4.75478        -2.78275        -0.44183
C         -3.69117        -3.61766         0.22549
C         -2.53286        -2.80814         0.82590
C         -1.25892        -3.58177         1.10817
C          0.07692        -2.80040         0.99589
C          1.31432        -3.61568         1.45439
C          2.67780        -2.90276         1.60863
C          3.87295        -3.56309         0.88866
C          5.07244        -2.92098         0.82221
C          6.29738        -3.67062         0.31661
C          7.48001        -2.86563        -0.29777
C          8.81114        -3.64267        -0.36111
C          9.98359        -2.95136        -0.54040
C         -8.48591        -4.95407        -0.72127
C         -7.24340        -5.65546        -0.22674
C         -5.98880        -4.96083        -0.82039
C         -4.63504        -5.56101        -1.11214
C         -3.40181        -4.81678        -0.65920
C         -2.21974        -5.62547        -0.26328
C         -1.19871        -5.01388         0.66982
C          0.14527        -5.68899         0.44139
C          1.31737        -5.08486         1.19371
C          2.62088        -5.76630         0.84640
C          3.59101        -4.85217         0.13234
C          4.81527        -5.57430        -0.38177
C          5.89568        -4.78520        -0.61248
C          7.79116        -5.88934        -0.70356
C          8.86531        -5.08286        -0.27187
C         -7.34509        -7.17802        -0.16504
C         -6.48654        -8.06040        -0.72831
C         -4.52518        -7.03260        -1.16515
C         -3.51159        -7.79489        -0.66393
C         -2.14309        -7.14047        -0.55585
C         -1.22017        -7.84305         0.38606
C          0.00982        -7.17440         0.73501
C          1.31329        -7.97746         0.68012
C          2.59274        -7.21167         0.47082
C          3.48351        -7.76927        -0.63603
C          4.80245        -7.00400        -0.80058
C          6.14470        -7.79224        -0.80073
C          7.42853        -7.19131        -0.39447
C         -6.19967        -9.45347        -0.39444
C         -4.93132        -9.94693        -0.38657
C         -3.63999        -9.23533        -0.40189
C         -2.56737        -9.93820         0.08344
C         -1.29279        -9.32738         0.60526
C         -0.00926        -9.98627         0.09593
C          1.20487        -9.36970         0.17218
C          2.46875       -10.00148        -0.18382
C          3.60270        -9.27852        -0.43914
C          4.88847        -9.93647        -0.53370
C          6.05675        -9.26320        -0.63210
O         -5.51555        -5.09745        -2.21722
O         -3.02007         2.07063        -0.51927
O          8.70660        -1.30775         1.39085
O          3.61504         1.31651         2.78633
O          6.94121         0.24801         1.82589
O          1.09063        -4.58231         2.52653
O          5.97087         2.76953        -1.80967
O          4.29307         8.79738         1.06347
O         -5.82110         4.86949        -1.91445
O         -0.84670        -1.31143         2.77809
O          0.58323         1.19317         2.83970
O          1.37191         2.67665        -0.07998
O         -6.45420         3.54480        -2.28608
O         -0.70178         5.11751         2.54456
O         -6.65994        -1.11372         0.73306
O         -5.64547        -7.60681        -1.76190
O          9.78119         1.63214         0.28828
O          5.49192        -7.31683        -2.03656
O         -4.40200        -2.11185        -1.73786
O         -2.24611        -4.81975        -1.51741
O          2.24618         7.80469         2.13804
O          6.80233        -4.44677         1.50883
O          5.46857         2.65899         1.76908
O          3.21998        -6.76016         1.71294
O          6.87067        -5.19244        -1.53358
O          0.67533        -7.68350         1.94934
O          3.27086        -1.05490        -0.03826
O         -7.75848         1.00543        -2.34547
O         -3.18933        -2.07714         1.94181
O          4.68256         5.53754         1.40025
O         -1.47032        -4.67662         2.04937
O         -2.35689         8.05015         2.27857
O         -3.18961         5.78660         2.74902
H         -2.55014         6.34332         3.25598
O         -0.94825         3.73237        -0.67673
H         -1.36863         2.99759        -1.17580
O          7.50799        -3.53404         2.37138
H          6.77825        -3.01084         2.81443
O         -1.30691        -9.60190         2.04585
H         -0.58762        -9.05097         2.44231
O         -1.51915        -7.25503        -1.88942
H         -1.99068        -6.61738        -2.47590
O          3.38515         3.43084        -1.15360
H          2.42151         3.29092        -1.33059
O         -5.04690         1.02207        -1.89260
H         -5.61775         0.93011        -2.68843
O          2.73817        -7.56149        -1.86147
H          3.37569        -7.64981        -2.60391
O          0.47386        -5.52904        -0.95685
H         -0.09787        -6.13689        -1.49710
O          6.99549         0.44034        -1.71199
H          6.22363         0.89123        -2.13171
O          2.97667        -2.87904         3.01418
H          2.58522        -3.68968         3.41604
O         -9.12010        -0.57919         0.73644
H         -8.34122        -0.57082         1.34246
O         -4.31243         3.52689         2.47025
H         -3.85359         4.24428         2.97859
O         -3.12124         7.97734        -1.18781
H         -3.86919         8.01546        -1.83420
O          9.07081         2.18513        -3.30350
H          8.27276         1.61874        -3.21118
O          5.48625        -1.70067         2.85474
H          5.89356        -0.86236         3.17679
O         -3.16559         4.91992        -0.78762
H         -3.85732         4.63062        -1.42778
O         -4.33085        -4.26574         1.35438
H         -4.39205        -3.60930         2.08567
O          3.72674         6.72930        -1.88000
H          4.22692         6.10946        -2.45328
O          0.25945        -2.57659        -0.41959
H          0.43247        -3.44025        -0.86886
O         -2.51512        -0.41488        -1.26452
H         -3.00515         0.07490        -1.96208
O         -9.40777        -1.29255        -2.84726
H         -8.56561        -1.78135        -3.02257
O          7.09138        -2.51649        -1.64648
H          7.11543        -3.34208        -2.18388
O         -8.90109         4.06394        -2.56216
H         -8.02754         4.11796        -3.02022
O         11.16065        -1.31751         0.64428
H         10.66343        -1.44665         1.48461
O         -0.06491         7.51658         3.06389
H          0.86274         7.38510         3.36845
O         -7.03155        -2.68466        -2.54150
H         -6.45178        -3.42997        -2.83029
O         -7.11320        -5.27331         1.18627
H         -7.94496        -5.50902         1.64835
O         -4.33479         9.63164         1.91149
H         -3.62136         9.29560         2.50600
O         -5.71996         1.05862         1.69209
H         -5.34846         1.63874         2.39572
O          2.86682        -4.40151        -1.05364
H          3.43881        -3.78214        -1.55464
O         -5.76309         7.64988        -2.20327
H         -5.91130         6.69035        -2.38454
H         11.57074        -1.42342        -2.19792
H         11.38059         0.96900        -2.63395
H         10.36053         3.26595        -2.10408
H          9.00004         5.34040        -2.12360
H          7.79872         7.50653        -1.89667
H          6.42999         9.59378        -2.14013
H          4.49523        10.92113        -1.42102
H          2.19496        11.01073        -0.43599
H         -0.06937        11.08685        -0.03544
H         -2.46828        11.17131         0.03006
H         -5.01055        11.20969        -0.29871
H         -6.88117         9.93923        -1.18572
H         -8.33806         7.84430        -0.55261
H         -9.61285         5.65380        -0.54076
H        -10.77002         3.39215        -0.65943
H        -11.96561         1.21383        -0.77561
H        -11.93753        -1.19388        -1.21612
H        -10.68282        -3.35258        -0.91173
H         -9.41992        -5.53256        -0.80738
H         -8.00876        -7.54642         0.63356
H         -7.03186       -10.12929        -0.14303
H         -4.83110       -11.01721        -0.13936
H         -2.71063       -11.00152         0.33367
H         -0.07189       -11.02431        -0.26556
H          2.51839       -11.10169        -0.17059
H          4.90092       -11.03177        -0.42494
H          7.00493        -9.82050        -0.60069
H          8.06714        -7.78493         0.27486
H          9.78477        -5.54915         0.11204
H         10.91351        -3.53705        -0.62570
