         204
 CSIRO Nanostructure Databank - Neutral Graphene Oxide Data Set
C        -11.16178         0.70335        -0.08547
C         -9.97145         1.47518         0.15152
C         -8.76675         0.73585         0.60149
C         -7.52131         1.49221         0.91955
C         -6.21781         0.78609         0.88550
C         -5.05924         1.47914         1.10972
C         -3.81401         0.74389         1.45099
C         -2.50135         1.46961         1.56890
C         -1.23941         0.70233         1.37264
C          0.04475         1.47054         1.60502
C          1.28253         0.72887         1.15342
C          2.50583         1.44119         1.07616
C          3.74033         0.72584         0.93050
C          4.97814         1.42794         0.93822
C          6.20944         0.70349         0.83420
C          7.49323         1.40664         0.99103
C          8.78390         0.66387         0.63420
C          9.95685         1.47379         0.25308
C         11.09808         0.76804        -0.27631
C         -9.89669         2.83503        -0.07301
C         -8.68462         3.58556         0.08180
C         -7.53159         3.02273         0.89837
C         -6.18812         3.60751         0.52943
C         -4.99905         2.92778         0.89047
C         -3.74162         3.57129         0.76115
C         -2.49250         3.00298         1.43069
C         -1.19127         3.56195         0.89340
C          0.01076         2.89377         1.08687
C          1.25805         3.59095         0.94948
C          2.51274         2.87930         1.06101
C          3.76112         3.57179         1.00827
C          4.97824         2.84892         1.04655
C          6.25629         3.57080         1.16093
C          7.52386         2.87076         0.93889
C          8.70743         3.56716         0.69014
C          9.92085         2.84603         0.37857
C         -8.59024         4.87609        -0.39854
C         -7.35040         5.59149        -0.39958
C         -6.13856         4.91299         0.00272
C         -4.87819         5.54972        -0.17786
C         -3.68336         4.88058         0.22244
C         -2.41747         5.55412         0.05503
C         -1.19593         4.91289         0.41927
C          0.03092         5.64145         0.36131
C          1.23945         4.98315         0.70843
C          2.50620         5.74190         0.73062
C          3.79159         4.99886         0.74912
C          4.97115         5.69026         0.56626
C          6.25882         5.08874         0.91176
C          7.51653         5.72864         0.47705
C          8.68709         4.99876         0.49264
C         -7.28084         6.91188        -0.86463
C         -6.04877         7.57964        -0.98729
C         -4.83053         6.88581        -0.69147
C         -3.58326         7.52485        -0.88716
C         -2.37815         6.84111        -0.54576
C         -1.12371         7.52050        -0.69452
C          0.02459         6.99514        -0.13396
C          1.17343         7.93967         0.15980
C          2.49090         7.19884         0.38273
C          3.72030         7.76979        -0.25082
C          4.99903         7.01632        -0.09017
C          6.27658         7.76323        -0.17168
C          7.46603         7.11198         0.06703
C         -5.98622         8.95313        -1.40679
C         -4.79102         9.59734        -1.54541
C         -3.53858         8.90694        -1.33582
C         -2.33223         9.53655        -1.55842
C         -1.06496         8.73234        -1.59637
C          0.19862         9.53765        -1.48177
C          1.28857         9.10945        -0.79853
C          2.54931         9.83556        -0.84795
C          3.74196         9.21975        -0.56511
C          5.03680         9.84256        -0.70718
C          6.21106         9.16116        -0.52976
C        -11.14775        -0.66468        -0.06780
C         -9.92379        -1.42210         0.09181
C         -8.69803        -0.71843         0.32339
C         -7.48386        -1.39009         0.38467
C         -6.18162        -0.62479         0.34493
C         -4.99890        -1.43533         0.79506
C         -3.81908        -0.75182         1.32432
C         -2.47447        -1.47659         1.24663
C         -1.22169        -0.67550         1.20450
C          0.01227        -1.40705         1.00562
C          1.26230        -0.68305         1.01435
C          2.49448        -1.38731         0.89494
C          3.73628        -0.70401         0.84344
C          4.96973        -1.39987         0.58991
C          6.20542        -0.67237         0.54437
C          7.42437        -1.33903         0.12326
C          8.64583        -0.69786         0.09622
C          9.83938        -1.34489        -0.42917
C         11.04903        -0.56965        -0.55789
C         -9.89625        -2.81061        -0.03780
C         -8.67238        -3.52616         0.03717
C         -7.44512        -2.80823         0.23105
C         -6.20433        -3.51015         0.25522
C         -4.97006        -2.80414         0.55855
C         -3.71416        -3.52803         0.54933
C         -2.48512        -2.85602         0.73384
C         -1.24678        -3.52913         0.56814
C         -0.00620        -2.81631         0.74725
C          1.20810        -3.55690         0.66813
C          2.46852        -2.85324         0.94001
C          3.78694        -3.60188         0.68194
C          4.98483        -2.81290         0.36911
C          6.11916        -3.47406        -0.12257
C          7.29834        -2.66283        -0.58672
C          8.59041        -3.44371        -0.65308
C          9.80889        -2.70117        -0.72431
C         -8.63485        -4.93288        -0.12543
C         -7.42101        -5.62616        -0.13488
C         -6.18768        -4.90887         0.05246
C         -4.94326        -5.61334         0.00407
C         -3.71248        -4.91781         0.20536
C         -2.47972        -5.61777         0.09071
C         -1.24137        -4.92627         0.27425
C         -0.00954        -5.63652         0.16433
C          1.22395        -4.94422         0.36957
C          2.46746        -5.65540         0.16274
C          3.70586        -4.98390         0.19869
C          4.90717        -5.62727        -0.20520
C          6.11934        -4.88236        -0.33233
C          7.32880        -5.56165        -0.70717
C          8.55404        -4.81481        -0.80729
C         -7.38041        -7.05025        -0.31252
C         -6.18398        -7.72580        -0.40795
C         -4.93171        -7.00349        -0.30492
C         -3.70992        -7.67915        -0.48101
C         -2.48223        -7.00857        -0.25323
C         -1.24318        -7.71854        -0.34418
C         -0.01863        -7.03876        -0.13833
C          1.21811        -7.74859        -0.26938
C          2.44827        -7.05068        -0.17893
C          3.67101        -7.73896        -0.44625
C          4.89554        -7.02492        -0.49412
C          6.11613        -7.69274        -0.82905
C          7.30991        -6.94971        -0.92208
C         -6.13270        -9.17696        -0.53458
C         -4.97813        -9.82345        -0.78448
C         -3.71396        -9.06349        -1.08099
C         -2.45387        -9.82100        -0.80563
C         -1.25127        -9.14975        -0.59354
C         -0.01087        -9.84618        -0.63409
C          1.21339        -9.16355        -0.53384
C          2.44877        -9.84363        -0.72210
C          3.66119        -9.15006        -0.71764
C          4.90862        -9.80773        -1.00084
C          6.08389        -9.10758        -1.06354
O          4.23666         6.97312        -1.37298
O         -3.27778         1.11807         2.77238
O          2.60852         6.81657         1.78610
O         -3.23165        -1.38738         2.49971
O          6.30378         4.53882         2.26238
O          0.80766         8.55960         1.42482
H          1.16241         7.97222         2.13525
O         -3.71775        -8.86128        -2.55697
H         -2.89679        -8.37142        -2.77850
O         -8.38262         0.99931         2.02248
O         -7.76973         3.47423         2.26308
H         -8.28504         2.75689         2.70428
O          0.16948         1.58998         3.06571
H          0.01296         0.70287         3.45351
O          3.26410        -3.41806         2.03894
O          8.36541         0.82047         2.02383
O         -5.94978        -0.39260        -1.11290
H         -6.02579        -1.26446        -1.55846
O          6.99428        -2.30949        -1.99514
H          6.97885        -3.14867        -2.50350
O         -1.02464         8.17603        -2.97193
H         -1.85627         7.67237        -3.10473
O         -2.55414         3.55686         2.77686
H         -3.03910         2.89726         3.32852
H         11.94432        -1.07692        -0.94692
H         12.02386         1.33463        -0.45584
H         10.81173         3.43285         0.10692
H          9.62895         5.49008         0.20458
H          8.41709         7.65235        -0.05815
H          7.16463         9.69786        -0.64717
H          5.06725        10.90918        -0.97553
H          2.54044        10.87558        -1.21024
H          0.27604        10.42772        -2.12664
H         -2.31471        10.58107        -1.90517
H         -4.75916        10.65119        -1.85813
H         -6.92905         9.48481        -1.60198
H         -8.20776         7.43683        -1.14035
H         -9.46878         5.35020        -0.86410
H        -10.77940         3.35914        -0.47342
H        -12.09809         1.24067        -0.29768
H        -12.07857        -1.22263        -0.24695
H        -10.83021        -3.36234        -0.22100
H         -9.57673        -5.48260        -0.26961
H         -8.33051        -7.60047        -0.38515
H         -7.06974        -9.73760        -0.39501
H         -4.95696       -10.92011        -0.87220
H         -2.43748       -10.90293        -1.00815
H         -0.01307       -10.92980        -0.82334
H          2.43841       -10.92492        -0.92470
H          4.89911       -10.89140        -1.18876
H          7.02542        -9.62507        -1.29900
H          8.24614        -7.46565        -1.18290
H          9.48984        -5.36748        -0.98389
H         10.74124        -3.22586        -0.98379
