         324
 CSIRO Nanostructure Databank - Neutral Graphene Oxide Data Set
C         30.77209        56.66735        -1.77473
C         30.67658        58.07055        -1.87971
C         29.47131        58.72072        -2.28768
C         30.54113        60.90417        -2.11212
C         29.41906        60.09970        -2.39575
C         33.45831        52.55509        -0.79340
C         33.27241        53.99015        -0.81258
C         32.08964        54.61613        -1.26868
C         33.08388        56.88040        -1.00990
C         31.96256        56.03657        -1.33900
C         33.02194        58.27595        -1.19971
C         31.82696        58.88894        -1.60714
C         32.90380        61.13034        -1.39857
C         31.75870        60.32752        -1.72086
C         35.53179        48.82779         1.61613
C         35.44770        50.28713         1.33269
C         35.26018        50.62506        -0.15769
C         35.62838        52.93049         0.11861
C         34.67619        52.01412        -0.35953
C         35.49435        54.30378         0.20192
C         34.32093        54.86697        -0.34927
C         35.38283        57.06063        -0.05910
C         34.27114        56.27459        -0.47804
C         35.27823        58.52337        -0.14111
C         34.29938        59.07724        -1.14694
C         35.29013        61.34125        -0.75559
C         34.13259        60.57468        -1.03522
C         37.76773        44.41340         1.44229
C         37.75293        45.84558         1.29393
C         36.59787        46.60690         1.44999
C         37.82925        48.61755         0.57497
C         36.59821        48.03886         1.26768
C         37.91031        50.10374         0.76033
C         36.63447        50.84028         0.56024
C         37.69054        52.97917         1.50324
C         36.92805        52.30359         0.39949
C         37.78842        54.45232         1.14411
C         36.62272        55.08222         0.65174
C         37.76045        57.26522         0.67469
C         36.56479        56.49066         0.46810
C         37.75914        58.66523         0.44747
C         36.49168        59.36134         0.16700
C         37.73057        61.44506        -0.28166
C         36.51707        60.75880        -0.33175
C         40.12507        40.33492         0.48164
C         40.15955        41.52522         1.13552
C         38.91856        42.19789         1.68558
C         40.21538        44.39936         1.50293
C         38.94519        43.70810         1.53481
C         40.25628        45.75618         1.24184
C         39.03626        46.50811         1.10969
C         40.31187        48.59858         1.24975
C         39.08760        47.89222         0.96947
C         40.26951        50.04532         1.68982
C         38.97956        50.75522         1.31154
C         40.27651        53.00602         1.60392
C         38.99547        52.22632         1.64316
C         40.25827        54.47972         1.36180
C         39.00238        55.16577         1.18034
C         40.21865        57.28969         0.83353
C         38.99157        56.57840         0.91808
C         40.20911        58.69263         0.56821
C         38.97002        59.38206         0.38366
C         40.18012        61.48705         0.04836
C         38.96271        60.79760         0.06945
C         42.36424        36.58619        -1.80543
C         42.42504        37.66448        -0.94575
C         41.26931        38.41918        -0.54723
C         42.61681        40.23334         0.48738
C         41.33960        39.62460         0.13130
C         42.70204        41.45913         1.09641
C         41.45321        42.14090         1.49541
C         42.77437        44.37361         1.71746
C         41.46444        43.63688         1.75013
C         42.78661        45.78180         1.36098
C         41.54162        46.47730         0.89117
C         42.75840        48.62914         1.75990
C         41.50101        47.92873         1.30857
C         42.78676        50.09412         1.36327
C         41.48265        50.78515         1.05621
C         42.72960        52.94862         1.31122
C         41.53865        52.26992         1.35471
C         42.76173        54.45371         1.50784
C         41.45436        55.16094         1.20228
C         42.66508        57.27029         0.63401
C         41.46385        56.57826         0.90722
C         42.67752        58.69001         0.46179
C         41.43842        59.40123         0.45037
C         42.65800        61.50219         0.14114
C         41.42349        60.81630         0.23027
C         44.64868        34.14221        -3.53812
C         43.47934        34.77146        -3.07925
C         44.84531        36.40420        -1.88577
C         43.55158        35.89920        -2.24890
C         44.95957        37.54404        -1.04853
C         43.74265        38.08934        -0.43524
C         45.13524        40.13618         0.16826
C         43.85204        39.44322         0.25788
C         45.07524        41.63319         0.31986
C         44.08016        42.05432         1.42780
C         45.28476        44.35748         1.16049
C         44.08998        43.58812         1.57250
C         45.27004        45.74670         1.24508
C         44.01152        46.48771         1.34553
C         45.30063        48.62639         1.54260
C         44.00797        47.89687         1.34781
C         45.25550        50.11361         1.27217
C         43.98481        50.80441         1.29951
C         45.22126        52.96622         1.13380
C         43.99012        52.24788         1.19815
C         45.22386        54.36712         0.90460
C         43.91998        55.03738         0.72678
C         45.19348        57.18828         0.16280
C         43.88557        56.48378         0.35962
C         45.17794        58.69111         0.11317
C         43.89542        59.41161         0.26881
C         45.14973        61.62183        -0.02701
C         43.87933        60.81648         0.16586
C         45.90402        34.62844        -3.19970
C         47.29493        36.31727        -2.00463
C         46.02809        35.77570        -2.37407
C         47.39512        37.46771        -1.24197
C         46.21311        38.12050        -0.76880
C         47.56526        40.15454        -0.21399
C         46.28951        39.46238        -0.20492
C         47.61252        41.55181         0.11287
C         46.43303        42.26607         0.45277
C         47.72093        44.32711         0.63955
C         46.49288        43.64156         0.76079
C         47.81558        45.78544         0.99220
C         46.48364        46.50865         0.99670
C         47.66828        48.64042         0.56732
C         46.46503        47.87650         0.94925
C         47.68191        50.11535         0.73607
C         46.43466        50.82115         1.12759
C         47.71315        52.94666         1.00842
C         46.47558        52.25468         1.11537
C         47.72354        54.44405         1.24027
C         46.42776        55.12397         0.84197
C         47.66107        57.29209         0.89695
C         46.42702        56.48605         0.57235
C         47.65101        58.73203         0.42704
C         46.44921        59.43389         0.29030
C         47.64654        61.53881         0.09500
C         46.44488        60.85126         0.13305
C         48.75113        37.98731        -0.82798
C         49.98994        40.13767        -0.50778
C         48.76514        39.47178        -0.53352
C         50.07925        41.53007        -0.22188
C         48.86289        42.23996         0.06801
C         50.15752        44.35318         0.14636
C         48.90255        43.64200         0.28199
C         50.17285        45.75710         0.15165
C         48.84877        46.47568         0.10193
C         50.12444        48.63775         0.22901
C         48.95549        47.93837         0.41255
C         50.16706        50.08433         0.35038
C         49.00917        50.78419         1.02865
C         50.13118        52.96322         0.46382
C         48.93568        52.27381         0.80977
C         50.11723        54.41395         0.38697
C         48.93884        55.14005         0.66197
C         50.11773        57.26065         0.30744
C         48.92857        56.54345         0.56129
C         50.12312        58.70445         0.25568
C         48.88884        59.42288         0.30366
C         50.12162        61.53232         0.01082
C         48.89544        60.84885         0.13580
C         51.31211        42.21514        -0.22449
C         52.59587        44.34524        -0.14075
C         51.38194        43.62558        -0.05200
C         52.62104        45.76176        -0.09983
C         51.37747        46.47550         0.03067
C         52.52988        48.61504        -0.30832
C         51.36776        47.91364        -0.03499
C         52.43390        50.06205        -0.73085
C         51.27225        50.80093        -0.06397
C         52.40422        52.98572        -0.52245
C         51.26408        52.23984         0.00452
C         52.51533        54.42293        -0.24158
C         51.31878        55.12341         0.08900
C         52.57002        57.24190        -0.03009
C         51.33289        56.54552         0.11255
C         52.57866        58.67999         0.00818
C         51.34361        59.39765         0.08870
C         52.58864        61.51409        -0.14847
C         51.35375        60.83777        -0.00412
C         53.81735        46.51261        -0.22150
C         54.99359        48.67014        -0.43037
C         53.79733        47.92455        -0.33516
C         54.99723        50.09961        -0.54586
C         53.74755        50.79237        -0.61408
C         54.98050        52.99994        -0.76229
C         53.73149        52.22150        -0.82098
C         54.97195        54.36030        -0.61696
C         53.74038        55.09734        -0.37049
C         55.03577        57.20979        -0.09795
C         53.77299        56.51975        -0.19853
C         55.04036        58.65432         0.00881
C         53.80439        59.37591        -0.05473
C         55.05554        61.48383        -0.32404
C         53.81818        60.81608        -0.15846
C         56.20431        50.80473        -0.67670
C         57.47838        52.97494        -0.53909
C         56.26306        52.25518        -1.06329
C         57.50057        54.32523        -0.43907
C         56.26734        55.12733        -0.82307
C         57.46660        57.09944         0.25283
C         56.22926        56.49000        -0.17605
C         57.49687        58.67416         0.29093
C         56.25217        59.36497        -0.00717
C         57.53355        61.41154        -0.46373
C         56.28293        60.77905        -0.27487
C         58.73313        55.04639        -0.13866
C         60.00459        57.13968         0.48486
C         58.74698        56.38032         0.11102
C         59.98398        58.59394         0.04325
C         58.77707        59.32088        -0.00947
C         60.00011        61.31581        -0.72245
C         58.76145        60.69147        -0.41162
C         61.18189        59.24214        -0.27996
C         61.18321        60.59634        -0.65629
O         57.42641        57.85902         1.50085
O         39.65309        52.58993         2.91485
O         52.79941        52.64469        -1.90133
O         43.62077        44.03548         2.87921
O         41.41091        42.69780         2.86440
O         35.39842        59.17577         1.15181
O         43.84942        38.19497         1.02489
O         45.25546        57.88298        -1.13757
O         43.61959        55.41986        -0.64753
O         48.31621        45.86991         2.35890
H         47.77495        45.27621         2.92031
O         34.77166        51.05083         2.29227
H         35.33806        51.81544         2.55456
O         47.48954        49.56770        -0.60964
O         49.17640        37.27731         0.35655
H         48.50353        37.42483         1.05316
O         61.16693        56.47271        -0.00382
H         61.11751        56.44072        -0.98092
O         42.76532        48.59701         3.22845
H         43.66991        48.87432         3.51252
O         56.39999        52.30482        -2.54368
H         55.63429        51.81704        -2.91821
O         37.73384        41.65343         1.10798
H         37.71726        41.88372         0.15688
O         47.65025        57.39665         2.38732
H         48.43019        57.93592         2.64303
O         52.11458        50.01914        -2.16850
H         52.14267        50.95866        -2.47808
O         40.39587        50.03314         3.12005
H         40.25991        50.95830         3.43843
O         37.63866        48.37306        -0.85964
H         37.52151        47.40579        -0.97331
O         34.95468        58.84350        -2.44326
H         34.34867        59.16536        -3.14382
O         45.12297        62.22754        -1.33458
H         45.12840        61.50792        -1.99932
O         37.76732        52.44961        -0.78437
H         37.36151        51.93021        -1.50993
O         44.53351        41.50649         2.67300
H         44.00886        41.93791         3.38391
O         56.37349        55.33693        -2.26947
H         56.41558        54.43772        -2.67501
O         36.94500        52.84439         2.73919
H         37.58979        52.96137         3.47284
O         44.47927        42.16803        -0.91173
H         45.13147        42.05880        -1.63592
O         45.54795        48.57478         3.02291
H         45.66049        47.62851         3.26346
O         48.33742        46.36854        -1.25923
H         48.83438        46.99769        -1.82354
O         49.24453        50.60763         2.46947
H         48.72494        51.29021         2.94632
O         43.06211        54.71500         2.90979
H         42.38257        54.26432         3.45436
O         41.60210        46.45924        -0.58852
H         40.97792        47.14278        -0.91544
O         41.26122        50.66395        -0.39246
H         41.99715        51.12538        -0.84850
O         47.84319        54.60189         2.69441
H         47.75315        55.57244         2.87599
H         29.89788        56.05030        -2.03215
H         28.58282        58.11293        -2.51120
H         30.46123        61.99740        -2.19771
H         28.48187        60.58387        -2.70543
H         32.63806        51.91406        -1.15005
H         31.23881        53.99711        -1.59288
H         32.79106        62.22561        -1.41461
H         34.65261        48.36357         2.09127
H         35.07618        49.81158        -0.87931
H         35.24965        62.43203        -0.90386
H         36.81166        43.87062         1.48924
H         35.66823        46.11713         1.77779
H         37.76838        62.50041        -0.59239
H         39.15534        39.86818         0.25066
H         38.87937        41.96095         2.78510
H         40.18772        62.56480        -0.17314
H         41.38833        36.24357        -2.18192
H         40.27936        38.03682        -0.84037
H         42.65916        62.59184        -0.00799
H         44.56404        33.25504        -4.18161
H         42.49604        34.37583        -3.37169
H         45.14619        62.47308         0.70573
H         46.81068        34.13123        -3.57308
H         48.21017        35.81483        -2.35237
H         47.64426        62.63229        -0.02385
H         49.50742        37.75385        -1.62027
H         50.91079        39.57886        -0.73186
H         50.11907        62.62699        -0.09890
H         52.23766        41.65175        -0.41627
H         53.53710        43.79583        -0.29194
H         52.59122        62.60980        -0.24809
H         54.78283        45.98649        -0.26381
H         55.95768        48.14028        -0.43058
H         55.06473        62.57300        -0.47861
H         57.14593        50.23574        -0.69931
H         58.38868        52.38676        -0.34468
H         57.56065        62.48772        -0.68999
H         59.67825        54.48105        -0.13279
H         60.07827        57.12960         1.60847
H         60.00804        62.37175        -1.02811
H         62.12468        58.67875        -0.23863
H         62.13563        61.08634        -0.90294
