         620
 CSIRO Nanostructure Databank - Neutral Graphene Oxide Data Set
C         22.93762        27.74956        -0.19771
C         22.95828        29.01326        -0.74664
C         23.06351        31.61867        -2.11707
C         23.14957        32.83636        -2.77591
C         23.22343        36.57251        -2.75295
C         23.14691        37.76383        -2.05309
C         23.01971        40.24677        -0.50962
C         22.95207        41.45162         0.10545
C         22.89947        44.31534         0.94908
C         22.86115        45.67965         1.20404
C         25.33870        25.16262         1.05602
C         24.15387        25.77801         0.70896
C         25.38662        27.73986        -0.08906
C         24.14730        27.08245         0.14354
C         25.39953        29.06354        -0.62463
C         24.18258        29.70576        -0.97047
C         25.45143        31.75619        -1.58352
C         24.21729        31.03629        -1.54405
C         25.49822        33.10468        -2.06751
C         24.35769        33.54977        -2.75652
C         25.54389        36.20165        -1.97681
C         24.40834        35.82061        -2.71924
C         25.51832        37.53583        -1.44640
C         24.30037        38.28525        -1.42102
C         25.48346        40.20461        -0.45275
C         24.27488        39.57886        -0.78213
C         25.49036        41.54667         0.19265
C         24.16541        42.17005         0.52915
C         25.33198        44.32428         0.96828
C         24.12260        43.63005         0.79027
C         25.27890        45.68761         1.31495
C         24.06163        46.39774         1.37464
C         25.24236        48.55241         1.35758
C         24.08576        47.84740         1.41543
C         27.84373        24.07275         2.09861
C         27.84762        25.18119         1.23329
C         26.59393        25.79304         0.83053
C         27.86025        27.70250        -0.07923
C         26.61114        27.07280         0.22352
C         27.87646        29.02768        -0.59233
C         26.65330        29.73100        -0.82518
C         27.91442        31.75248        -1.46663
C         26.67051        31.08176        -1.25401
C         27.91850        33.18591        -1.67271
C         26.70418        33.91830        -1.88540
C         27.92879        36.01213        -1.37455
C         26.72203        35.34957        -1.79883
C         27.94251        37.39581        -1.01691
C         26.72835        38.15749        -1.00110
C         27.93908        40.18016        -0.16935
C         26.72106        39.52459        -0.61202
C         27.94656        41.51811         0.23810
C         26.73712        42.40046        -0.06743
C         27.83500        44.16042         1.60756
C         26.70869        43.78009         0.64451
C         27.78336        45.59820         1.14671
C         26.55260        46.38255         1.54853
C         27.82965        48.57621         1.13570
C         26.55536        47.89303         1.49921
C         27.82949        49.99469         0.92212
C         30.25664        24.08876         2.12184
C         29.04689        23.57586         2.58904
C         30.35655        25.12526         1.15236
C         29.09690        25.74842         0.81379
C         30.32059        27.59368        -0.25038
C         29.08495        27.00513         0.14008
C         30.35105        28.91728        -0.77326
C         29.12139        29.65969        -0.88925
C         30.39159        31.63063        -1.66180
C         29.11145        31.00531        -1.33792
C         30.41145        33.16783        -1.71347
C         29.14463        33.88977        -1.56138
C         30.41600        35.94263        -1.07664
C         29.16279        35.27887        -1.33322
C         30.40627        37.32136        -0.71905
C         29.16296        38.04087        -0.62483
C         30.39597        40.04485         0.10766
C         29.15469        39.38685        -0.17064
C         30.40055        41.39976         0.53443
C         29.11765        41.95803         1.10479
C         30.33719        44.29390         1.08251
C         29.14969        43.46157         1.44521
C         30.32851        45.67559         1.04027
C         29.07628        46.40382         1.45568
C         30.27632        48.58354         0.91675
C         29.02464        47.87054         1.06163
C         30.26544        50.03064         0.72380
C         28.99109        50.68828         0.72617
C         33.01378        20.57752         1.45034
C         32.09364        21.39206         2.09109
C         33.04082        23.40166         1.00985
C         32.16773        22.78514         1.90564
C         33.01485        24.92881         0.81406
C         31.59676        25.59315         0.56886
C         32.69931        27.38029        -0.77286
C         31.53424        26.83180        -0.11969
C         32.79436        28.72207        -1.18649
C         31.61075        29.53148        -1.09818
C         32.84991        31.66244        -1.39313
C         31.64542        30.92802        -1.37245
C         32.87113        33.07564        -1.39619
C         31.67618        33.83299        -1.40887
C         32.90335        35.91120        -0.91289
C         31.65368        35.22787        -1.13816
C         32.88237        37.30093        -0.59855
C         31.63935        37.99385        -0.48256
C         32.85277        40.09961        -0.03569
C         31.62999        39.37918        -0.14115
C         32.81207        41.47922         0.23812
C         31.59200        42.12276         0.54263
C         32.81589        44.41318         0.49665
C         31.53577        43.60426         0.58934
C         32.78940        45.82645         0.84857
C         31.55527        46.46534         0.96269
C         32.73331        48.75998         1.33566
C         31.49319        47.90532         1.03897
C         32.75718        49.96843         0.39254
C         31.45850        50.74220         0.50757
C         32.67752        52.85722         0.19997
C         31.50189        52.15129         0.28984
C         35.25892        18.97029         0.27893
C         35.26654        20.37781         0.41875
C         34.09461        21.16739         0.75940
C         35.31225        23.17458         0.01764
C         34.11567        22.57930         0.55337
C         35.21761        24.49700        -0.60480
C         33.98551        25.29162        -0.31237
C         35.58147        27.37847        -1.67152
C         33.72288        26.40290        -1.05185
C         35.41556        28.71298        -1.39462
C         34.08976        29.39813        -1.54903
C         35.31420        31.59348        -0.77330
C         34.12928        30.90769        -1.45521
C         35.39164        33.06990        -1.02662
C         34.18256        33.81244        -1.53560
C         35.36241        35.90242        -0.80673
C         34.13630        35.23047        -1.02659
C         35.35453        37.31343        -0.56556
C         34.11590        38.00167        -0.45091
C         35.32735        40.11272        -0.26310
C         34.11115        39.41027        -0.23034
C         35.28665        41.58482        -0.24013
C         34.08660        42.21982         0.36422
C         35.36861        44.47101         0.38752
C         34.11562        43.69108         0.57454
C         35.36480        45.84957         0.69800
C         34.08242        46.51023         1.09516
C         35.34164        48.81738         1.31272
C         34.05601        47.98675         1.33684
C         35.24377        50.15428         0.58872
C         34.00969        50.82255         0.52052
C         35.18546        52.98405         0.40247
C         33.96891        52.22830         0.33701
C         35.22845        54.43067         0.30207
C         37.69873        18.92288         0.18437
C         36.44087        18.27551         0.07398
C         37.71989        20.31649         0.38851
C         36.50897        21.05584         0.34385
C         37.78414        23.15073        -0.08962
C         36.52135        22.47990         0.11093
C         37.83538        24.40813        -0.64569
C         36.61763        25.13231        -1.09084
C         37.90793        27.29051        -1.02648
C         36.74587        26.60416        -1.30398
C         37.98318        28.74964        -1.18006
C         36.64673        29.51758        -1.33246
C         37.84857        31.59932        -0.77562
C         36.64163        30.92049        -0.96310
C         37.84247        33.03806        -0.67573
C         36.59333        33.74903        -0.85044
C         37.83484        35.88691        -0.61954
C         36.60896        35.19328        -0.80819
C         37.82642        37.31747        -0.50439
C         36.58671        38.02601        -0.48475
C         37.80267        40.18931        -0.45543
C         36.56756        39.45020        -0.40483
C         37.82013        41.63187        -0.40255
C         36.54911        42.37590        -0.33078
C         37.79378        44.49890         0.09096
C         36.56693        43.79716         0.09368
C         37.79367        45.89940         0.34177
C         36.58300        46.56534         0.68331
C         37.82339        48.76538         0.43616
C         36.62145        48.02257         0.97249
C         37.67213        50.17742        -0.10120
C         36.43800        50.88462         0.39068
C         37.69907        53.00176         0.62345
C         36.41771        52.28645         0.41008
C         37.68276        54.51280         0.65158
C         36.38370        55.14487         0.35103
C         40.23944        16.06874         0.00481
C         39.05447        16.78978        -0.13857
C         40.09948        18.78375         0.75599
C         38.95243        18.16142         0.21678
C         40.22269        20.25843         0.98484
C         38.95934        21.04046         0.77903
C         40.30555        22.93165        -0.19577
C         39.02441        22.56029         0.57936
C         40.38231        24.43015        -0.28326
C         39.15270        25.08655        -0.76174
C         40.37376        27.32656        -0.41919
C         39.18974        26.58508        -0.88138
C         40.30190        28.71772        -0.27153
C         39.13845        29.46809        -0.62795
C         40.29444        31.63733        -0.35921
C         39.09815        30.88159        -0.59193
C         40.29383        33.02417        -0.46919
C         39.05735        33.74648        -0.57554
C         40.30992        35.89686        -0.38959
C         39.07399        35.18126        -0.54679
C         40.30232        37.31897        -0.34015
C         39.04581        38.03501        -0.40457
C         40.27719        40.17143        -0.59690
C         39.00691        39.45700        -0.44513
C         40.27591        41.68123        -0.60336
C         39.00204        42.37285        -0.38369
C         40.25634        44.49860        -0.18141
C         39.02672        43.79202        -0.16943
C         40.26075        45.91717        -0.10595
C         39.02731        46.62774         0.10968
C         40.19662        48.73247        -0.45908
C         38.98901        48.00797        -0.06151
C         40.19000        50.29153        -0.37479
C         38.95596        50.96482         0.01808
C         40.21249        53.05316         0.29576
C         38.97816        52.30953         0.32877
C         40.19453        54.49340         0.40203
C         38.97853        55.22513         0.47888
C         40.21028        57.32515         0.50639
C         39.00975        56.63382         0.50925
C         42.64265        16.01008         0.87478
C         41.34011        16.63126         0.69809
C         42.97861        18.95132         1.37383
C         41.12676        17.93475         1.18084
C         42.83252        20.29670         0.94493
C         41.55634        20.96320         0.80726
C         42.79426        23.01852         0.24255
C         41.56384        22.28461         0.35325
C         42.80201        24.43495         0.08193
C         41.55220        25.14535        -0.11931
C         42.77544        27.29179         0.13254
C         41.57546        26.60202        -0.13886
C         42.78657        28.72295         0.25021
C         41.49343        29.42331         0.22364
C         42.82130        31.59239         0.07181
C         41.51449        30.94529         0.11013
C         42.88065        33.02178        -0.26865
C         41.56971        33.76589        -0.51064
C         42.78493        35.90407        -0.10005
C         41.56470        35.21900        -0.30579
C         42.77311        37.33375        -0.05386
C         41.53693        38.00157        -0.18444
C         42.78340        40.22498        -0.07421
C         41.49948        39.46855        -0.11342
C         42.77851        41.65264        -0.50660
C         41.52632        42.41343        -0.38419
C         42.76671        44.53194        -0.22785
C         41.52004        43.79165        -0.28148
C         42.74366        45.94992        -0.20484
C         41.48842        46.64571        -0.19696
C         42.69563        48.80567        -0.33007
C         41.48673        48.05750        -0.31598
C         42.68328        50.24499        -0.26163
C         41.46742        50.96661        -0.16028
C         42.70099        53.07835         0.12647
C         41.44788        52.36782         0.10513
C         42.68811        54.50516         0.30067
C         41.43939        55.20223         0.38579
C         42.68146        57.32545         0.50621
C         41.43934        56.62542         0.46627
C         43.83912        16.66697         1.03724
C         45.26558        18.76266         0.63261
C         44.04399        18.10779         1.02124
C         45.27331        20.18764         0.51863
C         44.04710        20.93217         0.56822
C         45.27077        23.03311         0.20260
C         44.04064        22.33385         0.33322
C         45.27277        24.45588         0.13348
C         44.02277        25.14998         0.11625
C         45.23720        27.27986         0.35775
C         44.03044        26.58276         0.20866
C         45.24035        28.71984         0.80017
C         43.96652        29.44066         0.43910
C         45.24543        31.57409         0.50957
C         43.98799        30.87557         0.36956
C         45.18647        33.03011         0.70130
C         44.03293        33.79686         0.20994
C         45.26255        35.92727         0.41739
C         44.02633        35.18579         0.16803
C         45.26023        37.37422         0.28788
C         44.02616        38.07336         0.05885
C         45.26785        40.22574         0.01416
C         44.04948        39.47404        -0.05699
C         45.25843        41.63256         0.03525
C         44.07342        42.39805        -0.34679
C         45.20812        44.58473        -0.05290
C         44.01194        43.86055        -0.17920
C         45.20757        45.99355        -0.15905
C         43.96294        46.68500        -0.23406
C         45.17822        48.83077        -0.31735
C         43.94562        48.11276        -0.28439
C         45.15077        50.24852        -0.33299
C         43.93161        50.95258        -0.22467
C         45.16981        53.10657         0.02006
C         43.92071        52.38948        -0.05949
C         45.16343        54.50828         0.28229
C         43.91108        55.22307         0.36189
C         43.87339        56.64557         0.47305
C         47.67982        18.73701         0.24931
C         46.49549        18.06449         0.43722
C         47.73696        20.16768         0.22299
C         46.50233        20.88788         0.31548
C         47.72683        23.03080         0.15475
C         46.50243        22.31292         0.22177
C         47.74084        24.45844         0.06549
C         46.49356        25.17759         0.08732
C         47.69588        27.34522         0.13275
C         46.48534        26.60670         0.20308
C         47.71176        28.76809         0.26145
C         46.50973        29.47394         0.47515
C         47.74328        31.64020         0.55385
C         46.48622        30.90168         0.54215
C         47.77266        33.05241         0.68025
C         46.50129        33.78992         0.85462
C         47.72469        35.93636         0.88601
C         46.45644        35.23844         0.62729
C         47.72297        37.45318         0.77238
C         46.46508        38.11688         0.38655
C         47.74978        40.24207         0.22837
C         46.50156        39.51850         0.21835
C         47.75916        41.65559         0.18916
C         46.48348        42.36858         0.34236
C         47.73392        44.58251        -0.02663
C         46.47110        43.88275         0.24773
C         47.70336        45.98253        -0.19415
C         46.45239        46.71352        -0.20206
C         47.68443        48.84576        -0.32932
C         46.43382        48.11547        -0.30785
C         47.68435        50.24584        -0.35120
C         46.41469        51.00474        -0.65230
C         47.62923        53.10639        -0.00427
C         46.40994        52.42450        -0.14188
C         47.60118        54.48776         0.32225
C         46.40827        55.16900         0.44085
C         50.23928        20.22993        -0.06131
C         48.96328        20.88423         0.15137
C         50.17485        23.04741         0.27488
C         48.96182        22.31871         0.20171
C         50.19652        24.45581         0.10321
C         48.96100        25.15920        -0.03607
C         50.20030        27.37724        -0.33976
C         48.88105        26.61775        -0.45565
C         50.19314        28.81435         0.01637
C         48.96907        29.50158         0.20139
C         50.21483        31.63328         0.41604
C         48.97223        30.92038         0.39859
C         50.23368        33.05648         0.56519
C         48.99911        33.77737         0.65401
C         50.19434        35.96298         0.84788
C         49.00748        35.22018         0.76859
C         50.19357        37.40501         0.77600
C         49.00970        38.12660         0.56092
C         50.20266        40.26443         0.13031
C         48.99885        39.54010         0.29233
C         50.18582        41.68277        -0.07179
C         48.95668        42.39916         0.03517
C         50.16716        44.53312        -0.34840
C         48.94994        43.84157        -0.08634
C         50.16397        45.97406        -0.42647
C         48.93751        46.69464        -0.31658
C         50.16133        48.83017        -0.36165
C         48.93012        48.12247        -0.33121
C         50.15280        50.25794        -0.27771
C         48.90982        50.96628        -0.26285
C         50.12736        53.06857        -0.12784
C         48.90127        52.39226        -0.15112
C         51.40542        20.89894         0.09319
C         52.69094        23.05123         0.52358
C         51.40467        22.28562         0.69070
C         52.68089        24.47011         0.35531
C         51.45579        25.15462         0.11202
C         52.71141        27.35188         0.19605
C         51.48923        26.60302        -0.13923
C         52.68457        28.76777         0.19826
C         51.43651        29.49400         0.14993
C         52.68651        31.62354         0.37186
C         51.44554        30.91374         0.32019
C         52.68839        33.03972         0.58609
C         51.48266        33.74961         0.68177
C         52.78510        35.96690         1.02188
C         51.47051        35.20794         0.99567
C         52.79566        37.46638         0.88846
C         51.44581        38.19994         0.83096
C         52.66035        40.22434         0.05748
C         51.45899        39.57229         0.28855
C         52.65094        41.58133        -0.62178
C         51.38929        42.38954        -0.36436
C         52.60388        44.48763        -0.97679
C         51.37475        43.77984        -0.51773
C         52.60082        45.99155        -1.02275
C         51.37350        46.70696        -0.61197
C         52.65488        48.84173        -0.46189
C         51.39719        48.11265        -0.51063
C         52.64191        50.24760        -0.23720
C         51.38316        50.97744        -0.22414
C         51.34037        52.38006        -0.17174
C         55.11329        23.06860         0.67125
C         53.89997        22.37996         0.68272
C         55.14829        24.47064         0.56729
C         53.92429        25.19145         0.42172
C         55.13455        27.36682         0.52164
C         53.92008        26.63651         0.37845
C         55.15734        28.77043         0.39212
C         53.91974        29.48745         0.28315
C         55.17064        31.61275         0.12906
C         53.91933        30.90828         0.27382
C         55.19594        33.02132         0.12547
C         54.00582        33.71814         0.64758
C         55.19370        35.90117         0.07503
C         54.06670        35.22836         0.74772
C         55.08553        37.33918        -0.20218
C         53.95230        38.14302         0.30781
C         55.15178        40.25457        -0.21668
C         53.91730        39.52115         0.06885
C         55.17638        41.61964        -0.34170
C         53.88638        42.40307        -0.20213
C         55.21307        44.48729        -0.89513
C         53.90936        43.74552        -0.91496
C         55.21834        45.99730        -0.91364
C         53.91723        46.75113        -0.98193
C         55.12093        48.84120        -0.29659
C         53.90224        48.16214        -0.53495
C         55.07101        50.22593        -0.03038
C         53.86780        50.91238        -0.02819
C         57.65011        24.53793         0.64831
C         56.41631        25.17680         0.66749
C         57.71002        27.40463         0.68228
C         56.37255        26.63417         0.81477
C         57.65163        28.81151         0.27398
C         56.41285        29.48721         0.27018
C         57.61461        31.59990        -0.21667
C         56.39667        30.89348         0.03074
C         57.57889        33.01271        -0.41021
C         56.39273        33.73994        -0.15273
C         57.56504        35.93783        -0.58247
C         56.35847        35.20229        -0.23129
C         57.59810        37.30739        -0.64756
C         56.35793        38.08170        -0.55743
C         57.68433        40.23294        -0.49490
C         56.44751        39.49940        -0.04111
C         57.69841        41.64784        -0.39004
C         56.42803        42.36869        -0.33818
C         57.62742        44.52820        -0.16528
C         56.40902        43.75168        -0.42269
C         57.63116        45.99942        -0.29139
C         56.42693        46.71906        -0.44346
C         57.63364        48.79049        -0.08200
C         56.40366        48.12263        -0.28843
C         58.87391        25.23887         0.52317
C         60.09788        27.34086         0.02896
C         58.91918        26.62215         0.41413
C         60.07952        28.69645        -0.15320
C         58.86676        29.47794        -0.05559
C         60.08274        31.61757        -0.46126
C         58.85435        30.88032        -0.26875
C         60.08744        32.95308        -0.67597
C         58.82941        33.70564        -0.79320
C         60.08120        35.97479        -0.50681
C         58.84310        35.20880        -0.82047
C         60.07605        37.31482        -0.54573
C         58.85813        38.03018        -1.08872
C         60.02597        40.25275        -1.10371
C         58.84950        39.52878        -0.83751
C         60.07495        41.63081        -0.92129
C         58.92727        42.34544        -0.54094
C         60.16997        44.62200        -0.43337
C         58.97643        43.78751        -0.21377
C         60.11242        45.97015        -0.29334
C         58.85997        46.69055        -0.16513
C         58.83622        48.09861        -0.07636
O         34.49534        26.67146        -2.18498
O         25.00088        41.49352         1.56118
O         35.67667        42.18329        -1.52624
O         35.70883        24.44795        -1.97873
O         31.39365        23.58779         2.75732
O         39.41375        20.69094         2.14570
O         46.42399        43.21231         1.56644
O         55.40345        37.76135        -1.59614
O         34.25599        42.77197         1.72501
O         42.43817        33.34505        -1.63388
O         53.19100        46.55226        -2.23460
O         27.33512        44.95243        -0.20339
O         34.11862        47.06875         2.47246
O         51.03178        27.04564        -1.50558
O         41.97567        18.42040         2.18404
O         40.08552        49.56802        -1.66888
O         57.09264        27.14276         1.98123
O         34.21523        30.26160        -2.75659
O         52.16579        35.52671         2.25497
O         37.54284        29.24951        -2.47383
O         41.25824        30.25868         1.40222
O         39.41106        25.72425        -2.06864
O         53.19253        43.84539        -2.17159
O         32.02910        44.12347        -0.71162
O         58.31302        44.08334         1.05853
O         26.63219        47.14125         2.78924
O         54.40464        34.39546         1.89928
O         47.64387        36.79031         2.08043
O         45.69788        33.41393         2.02637
O         24.44446        34.69723        -3.55849
O         52.22626        38.10635         2.06606
O         37.69409        48.48185         1.87219
O         37.68924        53.72615         1.90191
O         55.49890        45.22432        -2.12899
O         40.37713        40.88470        -1.86580
O         30.43348        32.35070        -2.93263
O         28.46726        43.67772         2.78260
O         41.99073        40.03052         1.15994
O         58.80376        34.46996        -2.08851
O         43.56509        41.95011        -1.69100
O         29.14205        46.38522         2.90875
H         28.31729        46.80881         3.25719
O         53.75107        42.74003         1.20741
H         53.70499        41.90321         1.71806
O         45.23485        28.65508         2.28469
H         44.34756        28.34035         2.56174
O         28.95373        41.22496         2.35749
H         28.50403        41.83341         2.99149
O         35.45898        49.26145         2.69133
H         36.42078        49.35752         2.88698
O         46.40821        51.12886        -2.12958
H         45.59432        51.61770        -2.37717
O         32.55051        49.26649         2.67288
H         32.95714        48.61764         3.28936
O         52.72119        41.26803        -2.03193
H         52.77598        42.12632        -2.52199
O         40.12468        22.40498        -1.54367
H         40.64569        22.95429        -2.16638
O         33.50559        25.51987         2.04714
H         32.93394        25.18326         2.77260
O         56.61459        39.32325         1.40988
H         56.76433        40.20819         1.80606
O         37.41463        49.99593        -1.53359
H         38.28734        49.79412        -1.95994
O         32.80273        49.41230        -0.96025
H         32.80364        50.16016        -1.59414
O         48.56130        26.56486        -1.88973
H         49.42958        26.50861        -2.35642
O         34.39332        33.92999        -2.99596
H         34.33702        33.02635        -3.37689
O         34.96358        31.43664         0.66408
H         35.63144        31.93152         1.18592
O         39.10071        23.19750         1.87107
H         39.30338        22.48683         2.52790
O         58.90907        37.89456        -2.54138
H         58.84933        36.93840        -2.75717
O         51.27522        22.08956         2.15275
H         50.43474        21.60618         2.30446
O         26.72688        42.66677        -1.49105
H         27.28016        43.46342        -1.65002
H         21.97860        27.24239        -0.01831
H         22.00371        29.49742        -0.99321
H         22.11007        31.07483        -2.12351
H         22.28902        33.24369        -3.32193
H         22.37201        36.20693        -3.34112
H         22.21099        38.33606        -2.07314
H         22.08096        39.75460        -0.79708
H         21.97061        41.92178         0.25678
H         21.95192        43.77294         0.83384
H         21.89696        46.20416         1.26017
H         25.30090        24.15603         1.49382
H         23.19685        25.26352         0.87785
H         25.19905        49.64503         1.25045
H         23.12205        48.37539         1.36337
H         26.90084        23.64062         2.45599
H         26.87928        50.54420         0.94311
H         29.06095        22.77731         3.34161
H         28.93664        51.77588         0.58672
H         32.98187        19.48960         1.59886
H         31.33789        20.97412         2.76824
H         32.62316        53.94528         0.05958
H         30.56105        52.71733         0.23500
H         34.30576        18.42316         0.28955
H         34.29024        54.97321         0.11794
H         36.40276        17.18856        -0.08157
H         36.34991        56.22841         0.16681
H         40.30404        15.04324        -0.38619
H         38.19021        16.29152        -0.59925
H         40.21632        58.42313         0.55756
H         38.06853        57.19686         0.57128
H         42.68529        14.91572         0.75391
H         42.67123        58.42293         0.57145
H         44.74443        16.03952         1.03439
H         44.80982        57.21739         0.50867
H         48.60817        18.15799         0.14827
H         46.50349        16.96657         0.48200
H         48.53843        55.03912         0.47326
H         46.43799        56.24051         0.67744
H         50.25255        19.18472        -0.40289
H         50.15699        54.16495        -0.07622
H         52.35854        20.38760        -0.10356
H         52.26899        52.96549        -0.16191
H         56.04188        22.49985         0.80733
H         53.90968        21.29343         0.84306
H         55.99393        50.78777         0.16147
H         53.88423        51.99260         0.16616
H         57.69751        23.44111         0.60860
H         57.65820        49.88235         0.02828
H         59.79967        24.65997         0.39193
H         61.03348        26.78012        -0.11201
H         61.01583        29.19550        -0.43461
H         61.04213        31.08549        -0.42204
H         61.03450        33.47834        -0.86069
H         60.98136        35.42937        -0.18663
H         60.97740        37.88489        -0.27534
H         60.92983        39.72121        -1.43127
H         61.02576        42.15872        -1.07673
H         61.12934        44.13715        -0.66352
H         61.03231        46.56711        -0.38343
H         59.78329        48.64880         0.01803
