         234
 CSIRO Nanostructure Databank - Neutral Graphene Oxide Data Set
C          1.50638         2.21603        -1.92722
C          1.44942         3.59911        -1.70025
C          2.67532         1.51418        -1.68515
C          2.56850         4.30939        -1.23457
C          1.35202         6.48912        -1.10189
C          1.25681         7.86732        -0.72739
C          2.47520         5.72391        -0.88156
C          2.27598         8.54529        -0.10875
C          0.99960        10.81493        -0.11978
C          1.00677        12.17302        -0.04798
C          2.17017         9.98750         0.25610
C          2.19304        12.95526         0.24867
C          1.00952        15.15472         0.29011
C          1.08682        16.52041         0.29990
C          2.19024        14.33404         0.39270
C          2.34463        17.22522         0.36882
C          2.39558        18.63568         0.16692
C          3.83980         2.19932        -1.24809
C          3.79587         3.60968        -1.03368
C          5.03611         1.48620        -0.98174
C          5.00782         4.28838        -0.63900
C          3.61492         6.32085        -0.15433
C          3.50748         7.79462         0.25341
C          4.94556         5.65985        -0.24505
C          4.78930         8.55968         0.49397
C          3.44385        10.74489         0.55258
C          3.49048        12.20119         0.08098
C          4.71700        10.03850         0.29472
C          4.76291        12.89256         0.52405
C          3.43472        15.04735         0.81114
C          3.53702        16.51121         0.59910
C          4.71349        14.28674         0.97870
C          4.80014        17.16294         0.56984
C          3.60358        19.28590         0.11685
C          4.83348        18.57093         0.27444
C          6.25672         2.12310        -0.71537
C          6.25442         3.58366        -0.63619
C          7.36579         1.27382        -0.34770
C          7.43395         4.34145        -0.34915
C          6.10592         6.33433         0.19198
C          6.09299         7.78476         0.54695
C          7.34790         5.66274         0.15265
C          7.42350         8.47000         0.53195
C          5.74800        10.82740        -0.13486
C          5.94552        12.21217         0.29062
C          7.63739         9.73235         0.05924
C          7.28829        12.74156         0.56542
C          6.02764        15.00600         1.09335
C          6.04854        16.46677         0.77577
C          7.29771        14.18550         1.00582
C          7.25279        17.14131         0.56590
C          6.06026        19.22934         0.08924
C          7.28594        18.53012         0.17260
C          8.70627         1.66043        -0.51068
C          8.74312         3.77907        -0.55394
C          9.91112         1.25080         0.07367
C          9.93024         4.25042         0.01025
C          8.58745         6.29093         0.68384
C          8.61712         7.76599         1.01274
C          9.90334         5.69653         0.31139
C          9.91185         8.51001         1.04113
C          8.68909        10.59911         0.50746
C          8.51047        12.02903         0.56480
C          9.88454         9.95318         0.93723
C          9.78932        12.77464         0.96981
C          8.58233        14.96272         0.90311
C          8.55475        16.46110         0.69900
C          9.77154        14.18587         0.44134
C          9.77587        17.12799         0.23387
C          8.50838        19.17261        -0.13554
C          9.76603        18.49429        -0.13011
C         11.11907         2.04428         0.07079
C         11.13912         3.50195         0.07623
C         12.33524         1.36670         0.26706
C         12.37185         4.20593         0.35221
C         11.16622         6.42256         0.59890
C         11.10900         7.80803         1.12634
C         12.41892         5.63278         0.61547
C         12.37986         8.49519         1.38801
C         11.10992        10.68865         0.90534
C         11.09690        12.06108         0.67003
C         12.39040        10.00607         1.15152
C         12.32154        12.75850         0.38861
C         11.03498        14.90040         0.14492
C         11.04197        16.38832         0.31001
C         12.32498        14.16052         0.14701
C         12.31433        17.11386         0.00525
C         10.97816        19.16563        -0.47971
C         12.25203        18.54506        -0.40952
C         13.57880         2.04188         0.35981
C         13.58667         3.48298         0.40651
C         14.79000         1.32816         0.41830
C         14.84139         4.16909         0.52937
C         13.62015         6.29690         0.83299
C         13.68943         7.70348         1.40809
C         14.86382         5.60345         0.70737
C         14.86393         8.49853         0.86251
C         13.61898        10.65708         0.67402
C         13.56169        12.02736         0.26566
C         14.80482         9.87703         0.61113
C         14.72789        12.71517        -0.21787
C         13.49922        14.82953        -0.23138
C         13.46417        16.29193        -0.49335
C         14.70676        14.10251        -0.44849
C         14.75486        17.05495        -0.66357
C         13.45134        19.19780        -0.65764
C         14.75368        18.52983        -0.30032
C         16.04789         1.99829         0.43644
C         16.03741         3.44099         0.52017
C         17.25496         1.29121         0.34471
C         17.30636         4.15766         0.70288
C         16.08829         6.32396         0.69083
C         16.09789         7.76860         0.69277
C         17.32915         5.62531         0.56765
C         17.31796         8.43808         0.50411
C         16.02331        10.51447         0.04411
C         15.96846        11.92932        -0.44313
C         17.32101         9.94130         0.57964
C         17.28484        12.64038        -0.68116
C         15.94070        14.84668        -0.84545
C         15.99955        16.30795        -0.69209
C         17.27230        14.12686        -0.88677
C         17.23068        17.05495        -0.92567
C         15.98914        19.22895        -0.80030
C         17.20837        18.54578        -0.84875
C         18.52297         1.99864        -0.03782
C         18.58956         3.40518         0.51960
C         19.82777         1.28354         0.22790
C         19.81542         4.16451         0.20797
C         18.53036         6.29220         0.30168
C         18.53348         7.73519         0.26480
C         19.78240         5.57118         0.10235
C         19.73837         8.43450         0.02564
C         18.59159        10.58280         0.09868
C         18.58794        11.98631        -0.35727
C         19.76835         9.86898         0.04857
C         19.84756        12.76897        -0.26554
C         18.47574        14.90848        -0.31951
C         18.55570        16.32383        -0.95627
C         19.81823        14.17507        -0.38597
C         19.86308        17.11704        -0.90940
C         18.44224        19.20860        -0.74334
C         19.60495        18.45972        -0.16564
C         20.98429         1.97938         0.19704
C         21.01280         3.43539         0.03277
C         22.19537         4.14244        -0.22907
C         20.97332         6.25552        -0.26478
C         20.84603         7.70326        -0.70006
C         22.16089         5.53115        -0.40877
C         22.12179         8.50302        -0.81230
C         21.10768        10.57579         0.15311
C         21.06416        12.07113        -0.12066
C         22.19667         9.81949        -0.57190
C         22.25587        12.81083        -0.07005
C         21.02332        14.90958        -0.27687
C         21.02050        16.37612        -0.26148
C         22.23560        14.19895        -0.15298
C         22.06356        17.12016         0.20338
C         20.88639        19.24534        -0.04839
C         22.03610        18.57257         0.16930
O         18.08444         3.61000         1.86245
O          8.84136         2.72550        -1.44595
O         11.95473        16.84064         1.38588
O         12.38053         9.43025         2.51934
O         18.17278        15.03303         1.03763
O         10.56375         6.43516        -0.78856
O          8.81896        15.82201         2.03160
O         13.89565        16.69843        -1.81949
O         15.85382        10.78497        -1.36847
O          3.28018         6.73207         1.21805
O          6.76375        10.25284        -0.89121
O         18.04960        12.01549        -1.75804
O         17.90308        16.53242        -2.20532
O          6.68778        14.50019         2.29942
O          3.85997        14.57087         2.14591
O         16.61972        14.44777        -2.12228
O          8.46485         6.76080         2.06351
O         10.13479        14.42202        -0.94414
O          5.37915         8.16295         1.78025
O          2.62654        10.31383         1.64183
O          3.61730        12.03668        -1.38496
H          3.54743        12.92316        -1.79826
O         19.19928        18.05573         1.17698
H         19.05609        18.86181         1.71443
O         14.86022        18.53818         1.17021
H         14.67714        19.44814         1.48494
O         21.45346        10.47414         1.57719
H         21.60022         9.52657         1.78214
O         18.43501         2.18146        -1.49823
H         18.47919         1.29554        -1.91555
O         14.00684         7.46828         2.81518
H         13.75184         8.28905         3.29812
O         17.26536        10.29641         2.01145
H         18.07373         9.94683         2.44349
O          9.75494        12.92822         2.41471
H          9.73486        12.03813         2.82490
O         20.35693         7.60436        -2.08732
H         20.13970         8.51126        -2.39265
O         20.27709        17.39570        -2.25339
H         19.47838        17.32131        -2.82818
H          0.60923         1.68900        -2.28029
H          0.49823         4.12067        -1.87088
H          2.71856         0.42715        -1.84216
H          0.48074         6.05228        -1.60886
H          0.32135         8.38927        -0.97303
H          0.06057        10.30485        -0.38081
H          0.06318        12.70721        -0.23314
H          0.02922        14.67451         0.16503
H          0.16939        17.11667         0.18823
H          1.45677        19.18939         0.02313
H          5.01212         0.38746        -1.03559
H          3.64506        20.36851        -0.07055
H          7.12726         0.27512         0.04798
H          6.06522        20.29782        -0.17178
H          9.95453         0.27413         0.57843
H          8.48470        20.23679        -0.41249
H         12.33158         0.26711         0.29628
H         10.92403        20.22776        -0.75939
H         14.76851         0.22882         0.38027
H         13.45291        20.25745        -0.95385
H         17.22452         0.19101         0.28948
H         16.01503        20.32793        -0.71403
H         19.83153         0.18944         0.35038
H         18.46359        20.31030        -0.77591
H         21.94813         1.45821         0.30424
H         23.14685         3.60174        -0.33373
H         23.09047         6.05048        -0.68074
H         22.97552         8.00539        -1.29840
H         23.13935        10.35035        -0.77821
H         23.21633        12.29437         0.06571
H         23.18584        14.74819        -0.10122
H         22.96054        16.63707         0.61718
H         20.85618        20.34552        -0.05201
H         22.97808        19.11372         0.34259
