         420
 CSIRO Nanostructure Databank - Neutral Graphene Oxide Data Set
C         28.16337        27.30512        -1.36052
C         28.14756        28.72385        -1.44070
C         27.00757        29.44382        -1.89825
C         28.14214        31.57819        -1.51019
C         27.00483        30.81982        -1.92256
C         28.12443        33.03419        -1.49639
C         26.97807        33.76161        -1.88887
C         28.04747        35.89021        -1.35213
C         26.94508        35.14540        -1.82616
C         27.99178        37.33513        -1.23141
C         26.93965        38.07585        -1.71715
C         27.96762        40.24017        -1.20438
C         26.87886        39.50060        -1.60624
C         27.97302        41.69032        -1.11686
C         26.79627        42.42379        -1.40707
C         27.87566        44.51585        -0.81674
C         26.74712        43.79960        -1.27519
C         27.85104        45.96485        -0.78200
C         30.44284        27.32814        -0.47591
C         29.27446        26.63104        -0.89907
C         30.42878        28.73565        -0.53525
C         29.30145        29.44918        -1.03251
C         30.48585        31.62342        -0.73101
C         29.29681        30.88485        -1.08539
C         30.47157        33.04874        -0.72522
C         29.26766        33.76455        -1.05835
C         30.36630        35.92391        -0.46728
C         29.22949        35.19297        -0.97131
C         30.36834        37.32181        -0.30390
C         29.04663        38.05845        -0.40987
C         30.43375        40.23656        -0.49054
C         29.21014        39.49047        -0.88550
C         30.37978        41.71429        -0.36832
C         29.13367        42.39919        -0.68496
C         30.22277        44.53661         0.01543
C         29.05648        43.80411        -0.50886
C         30.15006        46.04313         0.09047
C         28.93220        46.69755        -0.42442
C         32.82562        24.47493         0.31806
C         31.70859        25.16673        -0.01861
C         32.83209        27.31973         0.16455
C         31.66125        26.61994        -0.06192
C         32.85637        28.78385         0.27250
C         31.57687        29.51334        -0.04471
C         32.87382        31.64191        -0.10616
C         31.65423        30.95165        -0.32794
C         32.86711        33.06621        -0.12874
C         31.63898        33.73837        -0.33459
C         32.86737        35.94473         0.15723
C         31.54397        35.17141        -0.05166
C         32.82306        37.39992         0.01946
C         31.56099        38.03563        -0.00758
C         32.82279        40.22775         0.19516
C         31.49876        39.50796         0.31700
C         32.77233        41.70040         0.50786
C         31.52348        42.40017        -0.00473
C         32.72766        44.53742         0.10112
C         31.53340        43.84163         0.03045
C         32.74120        46.01632        -0.00771
C         31.44754        46.80010         0.02712
C         32.72287        48.78575         0.72856
C         31.52324        48.17408         0.53848
C         35.46312        23.09078         0.77457
C         35.38405        24.46663         0.76749
C         34.07064        25.15770         0.70380
C         35.38559        27.32585         0.17483
C         34.08349        26.65154         0.56615
C         35.35445        28.83254         0.31715
C         34.14168        29.51817         0.22085
C         35.34062        31.66460         0.05951
C         34.11306        30.94034         0.10620
C         35.32625        33.07979        -0.11627
C         34.11634        33.79101        -0.06128
C         35.31905        35.97238        -0.10146
C         34.12302        35.22806        -0.03526
C         35.29423        37.41525        -0.05812
C         34.05430        38.11254        -0.01274
C         35.28216        40.29163         0.00065
C         34.02340        39.56383         0.05172
C         35.28096        41.71466         0.04577
C         34.04337        42.44428         0.17590
C         35.22089        44.60864         0.11726
C         33.99814        43.83824         0.14367
C         35.22297        45.99362         0.17390
C         33.99526        46.73910         0.26803
C         35.25515        48.82822         0.69457
C         33.98491        48.10979         0.53618
C         35.28752        50.22716         1.08496
C         37.79741        23.09698         1.44903
C         36.68479        22.40693         1.04967
C         37.75584        24.56838         1.50453
C         36.56181        25.27916         1.01496
C         37.82430        27.42367         0.82160
C         36.59911        26.65853         0.78558
C         37.82645        28.84200         0.55905
C         36.58640        29.55186         0.36157
C         37.82434        31.69677         0.24543
C         36.58218        30.96345         0.21723
C         37.83649        33.10124         0.05629
C         36.60278        33.79951        -0.46363
C         37.76344        35.98872        -0.19823
C         36.57261        35.28427        -0.18547
C         37.75967        37.42322        -0.17416
C         36.53268        38.13433        -0.12327
C         37.71974        40.31645        -0.27590
C         36.51120        39.58884        -0.11968
C         37.74426        41.73312        -0.18794
C         36.51462        42.41493        -0.01041
C         37.80007        44.62693         0.14957
C         36.49520        43.86479         0.24047
C         37.76824        46.08071        -0.01656
C         36.45497        46.79788        -0.15129
C         37.70459        48.98684         0.25586
C         36.44577        48.18193         0.44323
C         37.73492        50.28446         1.03295
C         36.45809        50.91374         1.23589
C         40.35255        20.57430         2.78150
C         39.15906        21.12673         2.44214
C         40.37856        23.17152         1.57623
C         39.09122        22.38828         1.68054
C         40.35090        24.63174         1.35866
C         39.09353        25.36656         1.44751
C         40.29735        27.46778         0.87816
C         39.06233        26.77120         1.02712
C         40.29695        28.87773         0.65583
C         39.05108        29.56676         0.54196
C         40.28783        31.71610         0.31120
C         39.05552        30.99717         0.39407
C         40.27451        33.11929         0.12434
C         39.04938        33.80600         0.01941
C         40.23788        36.01411         0.17255
C         39.05964        35.24407        -0.47182
C         40.24462        37.47662        -0.20998
C         39.01442        38.12842        -0.30164
C         40.27038        40.33994        -0.62792
C         38.95562        39.57287        -0.58149
C         40.24657        41.79028        -0.38399
C         39.00967        42.47280        -0.24657
C         40.24182        44.62644        -0.28636
C         39.03502        43.88538        -0.14370
C         40.19756        46.04535        -0.26281
C         38.97181        46.77896        -0.10615
C         40.16747        48.81110         0.59554
C         38.99179        48.19442         0.26050
C         40.16902        50.02354         1.51276
C         38.94023        50.89036         1.34515
C         40.28907        52.92080         1.57588
C         39.06918        52.30588         1.57252
C         42.88217        20.58658         2.82089
C         41.61848        21.23205         2.50679
C         42.87895        23.21830         1.68954
C         41.62136        22.53561         2.05200
C         42.78952        24.69742         1.53865
C         41.54527        25.34656         1.23147
C         42.76658        27.49459         0.97899
C         41.53834        26.77611         1.04483
C         42.77184        28.89506         0.70334
C         41.53521        29.59606         0.56484
C         42.78716        31.70439         0.28817
C         41.54337        31.00513         0.37005
C         42.81008        33.12747         0.08310
C         41.53597        33.83375        -0.31114
C         42.73737        36.01508        -0.00739
C         41.55933        35.31624        -0.01301
C         42.73710        37.47891        -0.06779
C         41.49422        38.18472        -0.26251
C         42.73392        40.32165        -0.35807
C         41.52208        39.59828        -0.39529
C         42.72579        41.76781        -0.42654
C         41.48201        42.48706        -0.36551
C         42.73761        44.59852        -0.49308
C         41.50194        43.91559        -0.38210
C         42.73115        46.06900        -0.62068
C         41.43312        46.81013        -0.43750
C         42.73130        48.73764         0.65853
C         41.43427        48.23799         0.10318
C         42.72696        50.00950         1.44837
C         41.46875        50.78751         1.46655
C         42.80219        52.84065         1.32078
C         41.51516        52.15907         1.47368
C         44.08068        21.14022         2.50308
C         45.52397        23.05774         1.51069
C         44.17884        22.42594         1.78049
C         45.71624        24.42608         1.72141
C         43.85896        25.52739         1.81613
C         45.28134        27.44682         1.06162
C         43.99450        26.84156         1.29437
C         45.25582        28.84527         0.74073
C         44.01771        29.57409         0.63702
C         45.25686        31.69508         0.35199
C         44.01587        30.98948         0.42702
C         45.25532        33.12666         0.26668
C         44.00481        33.83901         0.13988
C         45.19874        36.00313         0.17928
C         44.02386        35.30596         0.05949
C         45.22800        37.50673         0.33945
C         43.93989        38.18427        -0.05046
C         45.20456        40.26590        -0.45426
C         43.96964        39.59965        -0.24726
C         45.17143        41.70175        -0.76719
C         43.93875        42.47793        -0.52955
C         45.25008        44.63045        -0.52867
C         43.97777        43.90382        -0.55560
C         45.28173        46.02045        -0.30752
C         44.03726        46.80319        -0.43703
C         45.29231        48.83332         0.55822
C         44.01428        48.22494         0.06734
C         45.27698        50.00426         1.46633
C         44.00181        50.73579         1.85739
C         43.97194        52.18133         1.40879
C         47.59362        23.12205         0.25855
C         46.50370        22.40272         0.74035
C         47.67463        24.53292         0.36157
C         46.63531        25.24262         1.03018
C         47.70670        27.39778         0.57139
C         46.52195        26.69981         0.94899
C         47.69400        28.81952         0.51901
C         46.48290        29.54597         0.54874
C         47.71062        31.69260         0.22707
C         46.48375        30.98151         0.39115
C         47.70295        33.12008         0.15589
C         46.47794        33.82355         0.24521
C         47.72368        36.00310        -0.01297
C         46.49493        35.30329         0.51196
C         47.70077        37.40605        -0.26427
C         46.47161        38.15938        -0.24013
C         47.68080        40.27683        -0.72866
C         46.44815        39.55285        -0.50698
C         47.73412        41.67127        -0.70475
C         46.49112        42.45569        -0.82991
C         47.73770        44.55147        -0.44801
C         46.50769        43.90783        -0.56566
C         47.79234        46.07031        -0.49352
C         46.50803        46.72350        -0.04363
C         47.75457        48.60626         0.97223
C         46.53261        48.01869         0.46538
C         47.69648        49.78028         1.70107
C         46.46196        50.44124         1.98310
C         49.89512        24.62422        -0.76829
C         48.82029        25.27411        -0.12064
C         50.10050        27.35092        -0.19764
C         48.89537        26.67285         0.13117
C         50.23854        28.77992         0.11414
C         48.96087        29.55746         0.45195
C         50.15466        31.67436        -0.10311
C         48.95215        30.99852         0.18391
C         50.13991        33.10521        -0.22148
C         48.93691        33.82617        -0.03265
C         50.14691        35.94378        -0.42735
C         48.92069        35.26617        -0.15170
C         50.14610        37.36519        -0.55529
C         48.92725        38.06686        -0.54506
C         50.15648        40.24019        -0.41964
C         48.94706        39.49875        -1.01412
C         50.25303        41.67988        -0.93651
C         48.96402        42.41835        -0.67103
C         50.27686        44.52118        -0.51244
C         48.96705        43.80351        -0.55000
C         50.30732        45.99359        -0.12858
C         49.02761        46.66596         0.13990
C         50.26862        48.48622         1.18911
C         49.01891        47.89352         0.76796
C         51.04611        25.30639        -1.11132
C         52.43274        27.38953        -1.08485
C         51.19000        26.67889        -0.80204
C         52.48819        28.80804        -0.93965
C         51.36932        29.53427        -0.43603
C         52.55296        31.65233        -0.79166
C         51.36663        30.94220        -0.40363
C         52.55753        33.07734        -0.81251
C         51.35696        33.79734        -0.54059
C         52.57736        35.90334        -0.91836
C         51.35747        35.21334        -0.61233
C         52.59955        37.33955        -0.83927
C         51.41239        38.05273        -0.67205
C         52.64657        40.16983        -0.47646
C         51.45700        39.49725        -0.59203
C         52.68029        41.61207        -0.31819
C         51.49217        42.36090        -0.40574
C         52.72769        44.41559         0.07590
C         51.51534        43.75703        -0.26898
C         52.75061        45.83432         0.35738
C         51.55647        46.56084         0.41478
C         51.46984        47.86005         1.01055
C         54.77296        27.38615        -1.78638
C         53.59275        26.70785        -1.51043
C         54.84244        28.79080        -1.67345
C         53.68577        29.51414        -1.26421
C         54.94324        31.63733        -1.45993
C         53.72498        30.93728        -1.16685
C         54.96653        33.05228        -1.40421
C         53.75981        33.77825        -1.15483
C         54.94837        35.95310        -1.76398
C         53.75371        35.19928        -1.21308
C         55.03283        37.37542        -1.23298
C         53.87952        38.02210        -0.85274
C         55.17298        40.19510        -0.57289
C         53.92595        39.40440        -0.25314
C         55.17953        41.56042        -0.32571
C         53.91833        42.27480        -0.09203
C         55.20840        44.26781         0.67630
C         53.92223        43.65234         0.17762
C         55.19049        45.76726         0.65864
C         54.03965        46.46603         0.59014
C         56.04946        29.50959        -1.95119
C         56.09863        30.87248        -1.83755
C         56.19840        33.80663        -1.54417
C         56.21731        35.15445        -1.62637
C         56.27106        38.11580        -1.27982
C         56.33384        39.45134        -0.98433
C         56.37743        42.38040        -0.44108
C         56.39845        43.66741        -0.03205
O         32.11835        46.55277        -1.25460
O         29.95501        45.25006         1.29943
O         30.29087        39.71840        -1.85483
O         43.46332        46.59242        -1.77177
O         37.21468        44.22814         1.48029
O         44.87187        25.04442         2.64742
O         41.37102        47.97458        -1.32186
O         39.56633        39.95727        -1.86285
O         50.43751        45.54795        -1.55488
O         39.84694        22.39118         0.41437
O         45.77680        42.07652        -2.06072
O         43.43857        22.49740         0.50878
O         33.97718        26.05865         1.88742
O         32.04794        35.48791         1.28855
O         49.91274        29.14580         1.49501
O         44.70643        49.17324        -0.78460
O         31.95850        29.23388         1.35522
O         42.67018        48.68748         2.13715
O         39.16494        35.13405        -1.88444
O         38.36650        25.11387         2.71112
O         53.97324        39.19057         1.21616
H         54.76117        38.63489         1.39872
O         32.67151        41.79018         1.97626
H         31.93163        41.18497         2.23619
O         36.76243        33.70826        -1.92631
H         37.61493        34.20232        -2.13427
O         49.90700        40.30491         1.00907
H         50.75376        40.50313         1.46206
O         49.06310        39.39212        -2.45487
H         49.34555        40.27072        -2.80737
O         28.51218        38.15702         0.94600
H         28.39847        37.24673         1.29125
O         35.47722        27.08360        -1.27457
H         36.27054        27.55465        -1.60803
O         37.61439        49.44706        -1.14911
H         37.37502        48.65157        -1.68732
O         31.06593        39.61384         1.72087
H         31.48224        38.87865         2.21944
O         55.33792        43.88118         2.09157
H         55.33457        42.90060         2.12391
O         43.98085        50.78066         3.31323
H         43.70853        49.88844         3.62097
O         39.95716        35.95720         1.61342
H         40.68076        36.42682         2.07981
O         50.42642        41.65375        -2.38873
H         50.45704        42.58224        -2.70450
O         46.63208        35.40175         2.00116
H         45.95336        34.80915         2.39155
O         36.33718        47.02965        -1.62974
H         35.41687        47.33218        -1.79914
O         40.06403        49.46833         2.87082
H         40.91402        48.99967         3.04440
O         54.71367        36.09797        -3.21078
H         54.61123        35.19549        -3.58056
O         47.88184        46.40102        -1.92021
H         48.78684        46.12996        -2.21449
O         45.35803        37.76926         1.78936
H         46.01344        37.10913         2.13561
O         41.47422        33.78665        -1.77815
H         40.62723        34.27866        -2.03626
H         27.27070        26.74336        -1.67154
H         26.11721        28.88542        -2.22161
H         26.10000        31.33587        -2.26990
H         26.08248        33.23593        -2.24438
H         26.02295        35.66036        -2.12640
H         26.10070        37.58078        -2.22623
H         25.94339        39.98924        -1.91066
H         25.89560        41.89670        -1.74809
H         25.82536        44.34496        -1.52299
H         26.94077        46.46711        -1.14204
H         29.24411        25.53418        -0.85907
H         28.92619        47.79238        -0.52972
H         32.81255        23.37677         0.26383
H         30.80892        24.59866        -0.29135
H         32.72526        49.82007         1.09679
H         30.59085        48.68786         0.81378
H         34.56663        22.48709         0.58048
H         34.34595        50.74566         1.30744
H         36.70720        21.30973         0.99165
H         36.42000        51.94175         1.62419
H         40.37739        19.61351         3.31713
H         38.21762        20.64648         2.74694
H         40.35754        54.01551         1.64672
H         38.16162        52.92534         1.60727
H         42.85016        19.61823         3.34253
H         42.78562        53.91625         1.08917
H         45.01413        20.64684         2.81208
H         44.92877        52.70803         1.28150
H         48.38160        22.57212        -0.27181
H         46.41923        21.32665         0.53620
H         48.60671        50.21471         2.13315
H         46.47210        51.31720         2.64676
H         49.82881        23.55457        -1.00488
H         50.26240        49.47521         1.66418
H         51.85407        24.76201        -1.61676
H         52.38516        48.34823         1.37163
H         55.66552        26.82622        -2.10022
H         53.58235        25.61455        -1.61193
H         56.14859        46.29198         0.79079
H         54.07720        47.56404         0.63638
H         56.94255        28.94683        -2.25936
H         57.03861        31.39161        -2.06810
H         57.15366        33.26257        -1.53323
H         57.18473        35.66684        -1.72514
H         57.18449        37.61254        -1.62405
H         57.29028        39.97628        -1.11698
H         57.28399        41.93621        -0.87675
H         57.32082        44.26182        -0.11436
