         344
 CSIRO Nanostructure Databank - Neutral Graphene Oxide Data Set
C          1.18166         2.06869        -0.38011
C          1.17029         3.45849        -0.18997
C          2.37723         1.38143        -0.51146
C          2.36913         4.19802        -0.15783
C          1.22435         6.32496         0.48524
C          1.27076         7.66236         0.84737
C          2.38933         5.63108         0.09972
C          2.47683         8.39696         0.78534
C          1.54898        10.27708         2.10179
C          1.72550        11.50522         2.70244
C          2.56110         9.75952         1.26168
C          2.80684        12.33869         2.32531
C          2.07952        15.62580         3.30670
C          2.07804        16.98557         3.03042
C          2.96343        14.75695         2.64503
C          3.03736        17.51080         2.14800
C          3.08910        18.93143         1.92860
C          3.61611         2.08345        -0.48359
C          3.60238         3.51242        -0.33965
C          4.84025         1.38834        -0.55998
C          4.83991         4.23661        -0.40325
C          3.61621         6.35819         0.00449
C          3.64475         7.75978         0.28830
C          4.83330         5.68319        -0.31762
C          4.85469         8.51963         0.13193
C          3.71142        10.55765         0.97596
C          3.74793        11.94042         1.37553
C          4.87417         9.92223         0.41821
C          4.75753        12.80896         0.62934
C          3.91526        15.20602         1.69287
C          3.97908        16.64058         1.50827
C          4.76920        14.35690         0.87619
C          5.03311        17.25763         0.76453
C          4.08211        19.50472         1.19059
C          5.11680        18.68280         0.62732
C          6.07870         2.08036        -0.47394
C          6.04418         3.52381        -0.48251
C          7.30417         1.40715        -0.37900
C          7.30243         4.23587        -0.73449
C          6.02360         6.44414        -0.46818
C          6.03444         7.83750        -0.28186
C          7.28522         5.75460        -0.81522
C          7.26335         8.62788        -0.65732
C          6.12669        10.65044         0.34117
C          6.15135        12.09799         0.87952
C          7.28672        10.02332        -0.05382
C          7.42130        12.78962         0.41049
C          5.65369        15.05892         0.07093
C          6.02020        16.43971         0.15549
C          7.47847        13.93425        -0.32909
C          7.25755        16.98624        -0.33957
C          6.21133        19.22641        -0.04153
C          7.31699        18.42094        -0.43021
C          8.52855         2.14731         0.06783
C          8.57863         3.55535        -0.48475
C          9.82224         1.39890        -0.09222
C          9.75729         4.25087        -0.56019
C          8.56595         6.45809        -0.60126
C          8.56021         7.85611        -0.48083
C          9.77452         5.70289        -0.57797
C          9.79689         8.55353        -0.39087
C          8.56329        10.78782        -0.32147
C          8.70745        12.03353         0.58918
C          9.83938         9.97004        -0.25689
C          9.92397        12.80613         0.15797
C          8.61355        14.82429        -0.36514
C          8.50039        16.24165        -0.53020
C          9.87382        14.20602        -0.12787
C          9.73217        16.95923        -0.70639
C          8.50114        19.07561        -0.83706
C          9.72288        18.38494        -0.93289
C         11.01827         2.04642        -0.26367
C         11.07102         3.50358        -0.69009
C         12.27629         1.36885        -0.13369
C         12.20106         4.22788         0.03149
C         11.01846         6.39097        -0.46751
C         11.02635         7.81941        -0.42844
C         12.25428         5.68147        -0.36141
C         12.26470         8.51189        -0.46833
C         11.06409        10.64472        -0.21655
C         11.12335        12.09084        -0.07528
C         12.29110         9.93061        -0.40871
C         12.34164        12.78213        -0.23483
C         11.07136        14.94307        -0.27125
C         11.00372        16.30491        -0.61620
C         12.35637        14.25754         0.12803
C         12.23210        17.04604        -0.84083
C         10.92535        19.09789        -1.15210
C         12.18733        18.46109        -1.11351
C         13.50302         2.05170        -0.08151
C         13.51736         3.50258        -0.10102
C         14.74549         1.34988        -0.07308
C         14.70433         4.20484        -0.17215
C         13.48032         6.34376        -0.48706
C         13.49246         7.78719        -0.62737
C         14.72027         5.61845        -0.41462
C         14.68316         8.47677        -0.85016
C         13.51063        10.63377        -0.59243
C         13.53974        12.06929        -0.53557
C         14.71258         9.90711        -0.86183
C         14.75864        12.74359        -0.79887
C         13.59885        14.99141        -0.35613
C         13.47394        16.39641        -0.81976
C         14.82459        14.22125        -0.73095
C         14.66944        17.10267        -1.11978
C         13.39332        19.18735        -1.24576
C         14.64834        18.53649        -1.22836
C         15.98228         2.01442        -0.07499
C         16.02541         3.51739         0.09462
C         17.21056         1.34578        -0.14143
C         17.16537         4.12361        -0.72056
C         15.95872         6.29607        -0.63596
C         15.92966         7.70084        -1.19281
C         17.18191         5.62906        -0.64391
C         17.16559         8.49796        -0.77634
C         15.91511        10.61351        -1.11706
C         15.93208        12.02344        -1.12833
C         17.17252         9.85701        -1.46478
C         17.18769        12.72591        -1.33239
C         15.82131        14.91843        -1.64376
C         15.90588        16.40235        -1.28143
C         17.21056        14.19054        -1.72343
C         17.09297        17.12033        -1.29478
C         15.88121        19.24166        -1.28912
C         17.11090        18.56039        -1.23659
C         18.46337         2.04330        -0.19637
C         18.48082         3.47060        -0.38455
C         19.68182         1.35368        -0.10807
C         19.67531         4.18914        -0.41718
C         18.43823         6.33272        -0.79107
C         18.46056         7.73925        -0.93924
C         19.67472         5.63573        -0.64837
C         19.67292         8.45405        -1.05859
C         18.44330        10.60542        -1.15096
C         18.39849        12.05513        -1.19561
C         19.63211         9.91576        -1.11836
C         19.63804        12.77315        -0.95881
C         18.30021        14.93493        -0.97339
C         18.37390        16.38911        -1.30892
C         19.56405        14.21433        -0.64695
C         19.65912        17.12000        -1.11199
C         18.36165        19.24942        -1.12097
C         19.59588        18.59518        -0.97833
C         20.92192         2.04500        -0.15584
C         20.92236         3.48391        -0.27358
C         22.14623         1.35857        -0.06519
C         22.14739         4.18242        -0.27783
C         20.88819         6.36482        -0.69698
C         20.90807         7.74788        -0.98320
C         22.13840         5.69364        -0.16664
C         22.22325         8.48693        -1.23496
C         20.91588        10.68054        -1.33951
C         20.84080        12.11280        -0.88673
C         22.15549         9.95655        -0.88571
C         22.04399        12.79369        -0.45997
C         20.83389        14.95586        -0.49004
C         20.84710        16.40288        -0.58094
C         22.00708        14.23997        -0.29469
C         21.98621        17.12374        -0.30022
C         20.80759        19.26958        -0.74021
C         22.02018        18.56700        -0.48605
C         23.39328         2.04548        -0.11093
C         23.37396         3.49599        -0.20788
C         24.60051         1.34756        -0.04397
C         24.61164         4.22485        -0.09606
C         23.41463         6.29313        -0.75642
C         23.42919         7.79356        -0.64479
C         24.62388         5.62375        -0.16425
C         24.56693         8.48229        -0.31897
C         23.27296        10.65397        -0.51300
C         23.21704        12.07926        -0.25095
C         24.61773         9.96765        -0.63095
C         24.37063        12.75834         0.44538
C         23.24514        14.94446        -0.00632
C         23.17884        16.42807         0.30906
C         24.39971        14.25959         0.23059
C         24.48260        17.13904         0.05883
C         23.24746        19.23696        -0.41485
C         24.48602        18.54295        -0.22389
C         25.92748         2.01822        -0.22245
C         25.86219         3.50575         0.05043
C         27.04344         1.37171         0.56622
C         27.01404         4.18428         0.31687
C         25.77085         6.38682         0.19112
C         25.76435         7.78569         0.11833
C         26.96333         5.62661         0.62766
C         26.97338         8.57049         0.45127
C         25.77484        10.72212        -0.01564
C         25.70451        12.06334         0.26193
C         27.02495        10.01368         0.13369
C         26.92419        12.79267         0.79327
C         25.62465        15.00292         0.72010
C         25.67346        16.44672         0.25619
C         26.90282        14.26108         0.30481
C         26.91859        17.12497         0.20678
C         25.71619        19.21897        -0.27054
C         26.93656        18.53701        -0.03322
C         28.20502         2.05096         0.80852
C         28.33459         3.45624         0.26035
C         29.36753         1.45590         1.41241
C         29.51465         4.24144         0.78567
C         28.27130         6.36402         0.82149
C         28.27273         7.85608         0.75093
C         29.53240         5.62656         0.69194
C         29.56812         8.52957         0.49211
C         28.24122        10.71749         0.25779
C         28.22344        12.12114         0.38297
C         29.53074         9.96819         0.16215
C         29.42651        12.93592         0.38820
C         28.14230        15.04390         0.66093
C         28.15373        16.42278         0.49333
C         29.36523        14.29246         1.09653
C         29.39200        17.16312         0.57364
C         28.16861        19.23279         0.01538
C         29.38097        18.57138         0.32186
C         30.54530         2.15779         1.57988
C         30.65862         3.54438         1.27196
C         31.80043         4.32847         1.68953
C         30.85499         6.33446         0.55412
C         30.76792         7.85416         0.59578
C         31.88565         5.66177         1.43635
C         32.00102         8.59967         0.65180
C         30.86254        10.73685         0.21404
C         30.83190        12.22724         0.39423
C         32.04093         9.95998         0.61272
C         31.86162        12.93698         1.12040
C         30.65908        15.06269         0.97690
C         30.63212        16.49315         0.81741
C         31.83167        14.32681         1.21383
C         31.82356        17.25664         0.83118
C         30.60493        19.29614         0.36713
C         31.80068        18.63973         0.62369
O         30.28511        10.29775        -1.05040
O         30.29160        12.93592        -0.76951
O         14.72196        14.81206         0.60333
O         18.53405        14.56583         0.40215
O          6.31216        14.37794        -0.96647
O          2.88587        13.46893         3.12390
O         19.24348        16.64380        -2.47332
O         27.49438         8.42719         1.85220
O         27.47573         5.89713         1.97679
O          7.25826         4.95454        -2.03485
O         31.31115         6.07606        -0.82849
H         31.21819         5.11206        -0.99137
O         22.16219         5.99838         1.25983
H         21.37750         5.58012         1.67217
O         16.88588         3.80248        -2.11812
H         17.56067         4.24960        -2.67100
O         11.84687         4.19374         1.45540
H         12.51998         4.71451         1.94218
O         17.04665         8.77274         0.64514
H         17.09380         7.91904         1.12506
O         23.44698         5.96129        -2.18011
H         22.98098         6.68777        -2.66638
O         29.23140        14.01595         2.53132
H         28.30593        13.68949         2.68978
O         15.21899        14.86031        -2.95563
H         15.95473        14.67880        -3.59282
O         11.40721         3.52699        -2.10145
H         10.65661         3.14378        -2.60123
O         16.33651         3.78245         1.49615
H         15.70111         3.27625         2.04430
O          8.90689        11.55038         1.94643
H          9.46386        12.20077         2.42395
O         26.84765        14.19525        -1.14696
H         27.67676        13.78140        -1.47071
O         21.04472        10.76059        -2.80871
H         21.29560         9.85632        -3.12234
O          8.37308         2.34300         1.53545
H          9.20287         2.75882         1.85717
O          8.46214        11.28419        -1.68309
H          8.18467        10.51343        -2.23805
O          6.25140        12.00561         2.32099
H          7.15229        11.65132         2.52670
O         15.94775         7.50693        -2.63239
H         15.14966         6.99221        -2.87381
O         26.83502        12.78526         2.25744
H         26.77519        11.84774         2.54270
O         24.87182         9.99900        -2.09493
H         25.82354         9.80475        -2.23778
O          4.39361        12.61326        -0.75317
H          5.02402        13.13403        -1.30591
O         17.19956         9.67287        -2.90360
H         17.31485        10.55440        -3.31605
O         25.52650        15.04477         2.17013
H         24.73317        15.59921         2.37530
O         24.08321        12.62507         1.88757
H         24.74797        13.19585         2.35140
O         26.30213         1.87129        -1.65808
H         25.58775         2.28957        -2.18599
O         22.45236         8.44323        -2.70849
H         23.29155         8.95296        -2.84956
O         28.64630         3.31058        -1.16929
H         27.93977         2.72814        -1.55565
O          7.16588         8.87299        -2.12130
H          6.23278         9.10837        -2.31526
O         22.99973        16.47577         1.78064
H         22.13967        16.04737         1.98309
O         17.63987        14.22535        -3.11999
H         18.21853        15.01107        -3.25530
O         12.37547        14.29394         1.59365
H         13.32928        14.31376         1.84752
H          0.22872         1.52175        -0.40772
H          0.20232         3.96378        -0.07353
H          2.38211         0.28901        -0.63448
H          0.26291         5.79809         0.54734
H          0.34322         8.15162         1.17305
H          0.67131         9.67084         2.35952
H          1.00615        11.87949         3.44239
H          1.37802        15.20125         4.03656
H          1.36522        17.65708         3.52867
H          2.31294        19.55416         2.39725
H          4.83708         0.29012        -0.62156
H          4.12667        20.59368         1.04805
H          7.32776         0.30838        -0.42888
H          6.28654        20.31729        -0.16282
H          9.82402         0.33311         0.18899
H          8.49235        20.17036        -0.94776
H         12.27360         0.27135        -0.04163
H         10.87436        20.18424        -1.31826
H         14.72956         0.25070        -0.13965
H         13.35144        20.28102        -1.35709
H         17.22592         0.24460        -0.14493
H         15.86995        20.34087        -1.33153
H         19.68221         0.25991         0.00965
H         18.34181        20.34832        -1.06022
H         22.14398         0.26292         0.03289
H         20.82374        20.36979        -0.74359
H         24.57914         0.24860         0.01600
H         23.27461        20.32494        -0.57541
H         26.93302         0.32135         0.87741
H         25.73389        20.30316        -0.45489
H         29.31099         0.40466         1.73244
H         28.18226        20.31646        -0.17349
H         31.41053         1.65331         2.03581
H         32.59988         3.82342         2.25320
H         32.77751         6.22137         1.75415
H         32.93173         8.04765         0.84320
H         32.98521        10.48439         0.81827
H         32.70457        12.37911         1.55214
H         32.75431        14.84374         1.51856
H         32.78817        16.76466         1.01550
H         30.59298        20.38069         0.18762
H         32.74199        19.20622         0.65271
