         598
 CSIRO Nanostructure Databank - Neutral Graphene Oxide Data Set
C         23.82021        69.55848         3.89289
C         23.90969        70.91875         4.24960
C         23.17666        71.46134         5.31889
C         24.40148        73.57842         5.23083
C         23.40063        72.77868         5.76621
C         25.86234        65.41166         2.33250
C         25.78333        66.80143         2.26562
C         24.73413        67.52536         2.90046
C         25.71030        69.73315         2.24664
C         24.70380        68.92348         2.98884
C         25.84397        71.19043         2.56822
C         24.86101        71.81068         3.54937
C         26.29686        73.81196         3.64998
C         25.21787        73.10587         4.16235
C         28.24854        61.14765         1.44991
C         28.25702        62.52503         1.74387
C         27.09414        63.26062         2.04158
C         28.22828        65.41231         1.66810
C         27.06357        64.68837         2.01365
C         28.14751        66.81589         1.27216
C         26.85001        67.54143         1.55518
C         28.18017        69.75358         1.48944
C         26.88118        69.04104         1.60985
C         28.24458        71.15556         1.77960
C         27.13189        71.85738         2.34640
C         28.44591        73.91809         2.45810
C         27.26617        73.21049         2.77489
C         30.50174        56.97952        -0.01862
C         30.50203        58.38916         0.19634
C         29.38012        59.07360         0.72357
C         30.67893        61.15254         0.93442
C         29.42367        60.44938         1.04684
C         30.75195        62.55488         1.22040
C         29.55328        63.22608         1.73491
C         30.68356        65.48112         1.07975
C         29.53559        64.77793         1.67642
C         30.57556        66.87860         0.83727
C         29.38982        67.59658         1.07294
C         30.55444        69.78542         0.86330
C         29.35789        69.04571         1.12128
C         30.62070        71.18413         1.07347
C         29.46889        71.86610         1.56668
C         30.73697        73.98973         1.57987
C         29.54220        73.27437         1.84954
C         32.92233        52.75264        -0.38196
C         32.87198        54.12653        -0.69681
C         31.70064        54.87525        -0.36621
C         32.75921        57.01563        -1.09536
C         31.62556        56.26676        -0.48685
C         32.81506        58.49130        -0.76905
C         31.71589        59.12362        -0.00261
C         33.12572        61.10607         0.48109
C         31.80997        60.45069         0.43200
C         33.18172        62.61055         0.80427
C         31.91239        63.32073         1.00274
C         33.10855        65.44164         0.54793
C         31.89922        64.75754         0.88114
C         33.07118        66.87758         0.19536
C         31.73950        67.59434         0.27210
C         33.04940        69.82595         0.22747
C         31.71790        69.09112         0.28344
C         33.06974        71.24842         0.61035
C         31.86203        71.91123         0.90451
C         33.10740        74.04952         0.90764
C         31.89834        73.33530         1.13234
C         35.32825        48.41137        -0.80540
C         35.26041        49.81156        -1.00144
C         34.13740        50.55719        -0.56365
C         35.09222        52.61501        -1.46798
C         34.02908        51.95868        -0.77210
C         35.18645        54.04997        -1.49251
C         34.04334        54.79465        -1.20544
C         35.31865        56.96033        -1.27085
C         34.01586        56.26044        -1.61942
C         35.41395        58.39809        -1.17891
C         34.11720        59.22575        -0.90040
C         35.48239        61.19525        -0.22570
C         34.27847        60.51652        -0.20579
C         35.53129        62.61740         0.00860
C         34.37556        63.33555         0.37211
C         35.55580        65.47835         0.12596
C         34.33458        64.75848         0.34708
C         35.57967        66.93468         0.21631
C         34.32747        67.66338         0.22502
C         35.53383        69.82397         0.32775
C         34.31690        69.06221         0.26341
C         35.52821        71.21943         0.42372
C         34.30497        71.94235         0.57026
C         35.50803        74.08928         0.29094
C         34.31121        73.38575         0.62596
C         37.72947        44.20138        -0.44437
C         37.66422        45.44714        -1.30662
C         36.42661        46.26304        -1.04361
C         37.56374        48.23010        -2.07286
C         36.39575        47.62195        -1.29441
C         37.47887        49.74954        -2.33027
C         36.26010        50.44990        -1.82620
C         37.83132        52.77614        -2.72106
C         36.00619        51.77195        -2.15689
C         37.77312        54.10742        -2.08366
C         36.53477        54.71976        -1.48807
C         37.76627        56.97889        -1.49726
C         36.57633        56.18134        -0.97279
C         37.85914        58.35830        -1.19691
C         36.69049        59.06431        -0.89902
C         37.94741        61.23925        -0.83452
C         36.78220        60.43739        -0.30965
C         37.90009        62.63026        -0.76857
C         36.72435        63.33540        -0.33287
C         38.01039        65.44787        -0.20735
C         36.71629        64.75046        -0.19263
C         38.05184        66.91719         0.06094
C         36.78129        67.63515         0.17483
C         38.14289        69.82457         0.23916
C         36.81140        69.10971         0.10892
C         38.13673        71.31479         0.57349
C         36.79995        71.99215         0.53138
C         37.87749        74.07564        -0.38082
C         36.74140        73.43255         0.14354
C         40.15970        40.40638         1.53206
C         40.13376        41.65322         0.84726
C         38.94912        42.33191         0.58273
C         40.20789        44.25690        -0.43653
C         38.91278        43.59590        -0.10551
C         40.19328        45.67031        -0.89982
C         38.87467        46.34776        -1.01302
C         40.12892        48.64804        -1.38665
C         38.84895        47.79991        -1.33400
C         40.11579        49.73237        -2.45753
C         38.80540        50.49457        -2.62994
C         40.23362        52.64658        -2.44345
C         38.92894        51.97818        -2.53584
C         40.28767        54.10344        -2.40362
C         39.01295        54.87850        -2.35815
C         40.26847        56.99217        -1.84110
C         38.95513        56.33718        -2.09316
C         40.25574        58.46526        -1.79827
C         39.11343        59.11500        -1.37842
C         40.35828        61.26692        -1.42710
C         39.13403        60.55409        -1.23836
C         40.36751        62.70350        -1.39220
C         39.07219        63.38251        -1.26083
C         40.42403        65.55763        -1.02471
C         39.13226        64.86994        -0.98257
C         40.47286        66.95372        -0.65091
C         39.30896        67.63760        -0.21952
C         40.66045        69.49783         0.39240
C         39.37578        68.96753         0.24940
C         40.61485        71.72119         0.34979
C         39.31163        72.15994         0.17130
C         40.31280        74.06297        -1.00007
C         39.15929        73.44320        -0.43860
C         42.39664        36.73312         4.05897
C         42.47789        37.97591         3.20098
C         41.32240        38.56475         2.72622
C         42.62083        40.40457         1.75261
C         41.34619        39.78371         1.96694
C         42.69803        41.64244         0.95230
C         41.42381        42.26403         0.43689
C         42.63613        44.42748         0.14493
C         41.46877        43.70001         0.10497
C         42.61434        45.90235        -0.11225
C         41.37857        46.54753        -0.63483
C         42.65540        48.48634        -1.54914
C         41.44013        47.87101        -1.31416
C         42.70447        49.82747        -2.13551
C         41.42287        50.46092        -2.58910
C         42.67607        52.64115        -2.92518
C         41.40350        51.94194        -2.63446
C         42.76220        54.09554        -2.62518
C         41.49605        54.77473        -2.41402
C         42.78818        56.94521        -2.18054
C         41.52098        56.22308        -2.10073
C         42.80971        58.38369        -2.32394
C         41.46974        59.18942        -2.16062
C         42.80223        61.27259        -1.88811
C         41.56807        60.60068        -1.79829
C         42.86707        62.71274        -1.42417
C         41.54459        63.44077        -1.54521
C         42.72110        65.65181        -2.01996
C         41.55027        64.87029        -1.46633
C         42.84553        67.06181        -1.45589
C         41.68716        67.67917        -0.83519
C         42.80759        69.92096        -0.81133
C         41.75959        68.99450        -0.32606
C         42.93250        71.35730        -0.39061
C         41.76126        72.24166        -0.28049
C         42.69105        74.05033        -1.79240
C         41.59807        73.47693        -0.99175
C         44.96394        34.19223         5.28537
C         43.74255        34.82809         4.96458
C         44.95824        36.67640         3.94987
C         43.72652        36.05993         4.32187
C         44.96481        37.91231         3.24982
C         43.75844        38.55775         2.91049
C         45.06292        40.51902         2.10197
C         43.79639        39.82164         2.22461
C         45.02929        41.95156         1.76476
C         43.86407        42.51839         1.10043
C         45.14945        44.49017         0.38496
C         43.88086        43.82130         0.60383
C         45.19904        45.89049        -0.11859
C         43.90104        46.65098        -0.30679
C         45.15169        48.42984        -1.46405
C         43.92275        47.86082        -1.15417
C         45.18218        49.69246        -2.24179
C         43.90438        50.44505        -2.39048
C         45.26347        52.58706        -3.00182
C         43.95866        51.82224        -2.95806
C         45.26784        54.09105        -2.74632
C         43.97156        54.74414        -2.42388
C         45.32839        56.95698        -2.04946
C         43.99796        56.16996        -2.00449
C         45.27562        58.43881        -2.17544
C         44.06504        59.14033        -2.18295
C         45.25798        61.32092        -2.19205
C         44.02141        60.57676        -2.11288
C         45.24026        62.76969        -2.20026
C         44.06789        63.47324        -1.93908
C         45.21902        65.63936        -2.20298
C         44.03663        64.90200        -2.02192
C         45.12069        67.12752        -2.45993
C         44.00015        67.77902        -1.65615
C         45.24868        70.03016        -1.61845
C         43.99225        69.25694        -1.49964
C         45.32231        71.32693        -1.15760
C         44.16728        71.93820        -0.54137
C         45.30199        74.05055        -2.19014
C         43.99726        73.88659        -1.45320
C         46.16967        34.79137         4.97920
C         47.43268        36.68981         4.03369
C         46.20511        36.04325         4.30042
C         47.50170        37.90156         3.31386
C         46.25351        38.40083         2.62649
C         47.53183        40.54012         2.12993
C         46.26660        39.89084         2.36928
C         47.59306        41.82619         1.55635
C         46.37557        42.63818         1.46122
C         47.58771        44.23097        -0.05495
C         46.33696        43.82134         0.61004
C         47.62402        45.58230        -0.75349
C         46.41588        46.43956        -0.73229
C         47.68374        48.38541        -1.57572
C         46.41547        47.73977        -1.23827
C         47.76413        49.70424        -2.00702
C         46.51774        50.36181        -2.50111
C         47.84297        52.59895        -2.70987
C         46.56544        51.82234        -2.88858
C         47.78511        54.09118        -2.58486
C         46.57149        54.80827        -2.51457
C         47.75219        57.04954        -2.53702
C         46.53673        56.23209        -2.44128
C         47.73727        58.49065        -2.20736
C         46.50347        59.18047        -2.22629
C         47.75533        61.32066        -2.39948
C         46.46517        60.60845        -2.29422
C         47.77451        62.81669        -2.52424
C         46.44248        63.54424        -2.72964
C         47.68608        65.68232        -2.05234
C         46.46897        64.98916        -2.28608
C         47.70844        67.14448        -1.99232
C         46.46912        67.87248        -2.38625
C         47.73827        70.04463        -1.83518
C         46.46453        69.36238        -2.13336
C         47.71700        71.53415        -1.90630
C         46.38534        72.23949        -1.72963
C         47.62614        74.35661        -1.06769
C         46.47377        73.68387        -1.31000
C         48.70117        38.56936         3.09365
C         49.97866        40.42895         2.08526
C         48.76085        39.83236         2.41114
C         50.03928        41.68642         1.41279
C         48.82049        42.38683         1.11073
C         50.07595        44.19098        -0.02621
C         48.85907        43.61092         0.36969
C         50.10517        45.48459        -0.69137
C         48.94170        46.19950        -0.95273
C         50.24795        48.27397        -1.69350
C         48.92857        47.56505        -1.53565
C         50.25999        49.75252        -1.67302
C         49.02851        50.45350        -2.03349
C         50.32349        52.56492        -2.16490
C         49.04818        51.83508        -2.25281
C         50.35646        54.06837        -2.21218
C         49.07065        54.81489        -2.54576
C         50.17968        57.02096        -1.76703
C         49.06293        56.31837        -2.46316
C         50.20244        58.50877        -1.78869
C         48.97054        59.19569        -1.99701
C         50.13441        61.35463        -1.66555
C         48.96563        60.61538        -1.95058
C         50.09830        62.79454        -1.63566
C         48.95079        63.53395        -1.96918
C         49.94813        65.62533        -1.02578
C         48.87959        64.95388        -1.80747
C         49.90532        67.13294        -0.78141
C         48.83456        67.85058        -1.59456
C         50.17589        70.01931        -1.43163
C         48.87742        69.31003        -1.61912
C         50.17264        71.47189        -1.13569
C         48.96369        72.26067        -1.45106
C         50.03209        74.26099        -0.49662
C         48.88641        73.64911        -0.92928
C         51.25535        42.28781         1.07104
C         52.54485        44.16853         0.25967
C         51.30890        43.54127         0.39828
C         52.70264        45.40405        -0.49340
C         51.42872        46.06085        -1.06383
C         52.75885        48.29641        -1.02862
C         51.52088        47.52553        -1.40139
C         52.63874        49.76256        -0.85511
C         51.41900        50.41834        -1.28930
C         52.49511        52.66925        -0.78546
C         51.51204        51.86395        -1.56004
C         52.57335        54.13448        -0.98728
C         51.49569        54.78017        -1.59428
C         52.67736        56.98283        -1.20334
C         51.40023        56.24130        -1.40523
C         52.63413        58.49554        -1.16284
C         51.35287        59.22115        -1.40792
C         52.47863        61.36243        -0.82186
C         51.32975        60.63928        -1.31909
C         52.53923        62.75135        -0.87598
C         51.39768        63.54583        -1.47646
C         52.42055        65.57963        -0.14457
C         51.20010        64.86787        -0.73283
C         52.39345        67.08955        -0.35039
C         51.29899        67.76662        -0.77849
C         52.55675        69.98194        -0.47850
C         51.39967        69.23472        -1.02547
C         52.54069        71.40023        -0.43391
C         51.31188        72.12413        -0.69187
C         52.45603        74.22731        -0.09583
C         51.29331        73.55970        -0.43089
C         53.87751        46.23239        -0.21008
C         55.00786        48.38823         0.03331
C         53.90054        47.60371        -0.37908
C         54.96585        49.79862         0.00773
C         53.73179        50.46698        -0.38115
C         54.87516        52.69125         0.10930
C         53.65708        51.92644        -0.17758
C         54.84064        54.10790         0.08620
C         53.68812        54.83905        -0.41522
C         54.82252        57.00362         0.02929
C         53.76088        56.26434        -0.50848
C         54.82205        58.44591         0.04029
C         53.70899        59.16231        -0.42047
C         54.79747        61.36881         0.31159
C         53.55560        60.59929        -0.15596
C         54.83003        62.80904         0.01038
C         53.72583        63.47500        -0.48516
C         54.93499        65.69254        -0.07036
C         53.74752        64.98769        -0.69374
C         54.91586        67.08711         0.06771
C         53.60162        67.81174         0.22156
C         54.90514        69.96249         0.20841
C         53.70152        69.27836        -0.08872
C         54.91680        71.39029         0.20309
C         53.71431        72.10312        -0.05554
C         54.89526        74.22393         0.32918
C         53.70924        73.54171         0.05355
C         56.07761        50.56056         0.41047
C         57.22965        52.72044         0.77881
C         56.07336        51.98940         0.43427
C         57.20463        54.13448         0.84934
C         55.99023        54.81451         0.52026
C         57.16620        57.02312         1.11359
C         55.90548        56.26667         0.70259
C         57.18011        58.46044         0.81039
C         56.03208        59.15210         0.45714
C         57.26547        61.28793         0.47400
C         56.07084        60.61508         0.41533
C         57.33109        62.75198         0.61145
C         56.06428        63.52968         0.36593
C         57.32594        65.66104         0.44136
C         56.12909        64.98624         0.14880
C         57.30819        67.06306         0.54812
C         56.10686        67.78651         0.38333
C         57.32067        69.94231         0.69681
C         56.11980        69.24053         0.47525
C         57.33774        71.38699         0.68893
C         56.12446        72.10059         0.47708
C         57.35571        74.20860         0.71432
C         56.12721        73.52950         0.51077
C         58.39483        54.86526         1.14200
C         59.66523        56.96453         1.26277
C         58.45113        56.27769         1.18989
C         59.72881        58.42655         1.35845
C         58.44077        59.17482         1.08357
C         59.85083        61.27430         0.58671
C         58.54496        60.55218         0.52943
C         59.83423        62.76168         0.59482
C         58.65049        63.43523         0.51570
C         59.88860        65.64520         0.69747
C         58.61633        64.91507         0.41421
C         59.78963        67.03366         1.22018
C         58.48932        67.77096         1.07863
C         59.75554        69.88853         1.17735
C         58.54073        69.23534         0.99167
C         59.81780        71.34527         0.95879
C         58.55063        72.09811         0.84722
C         59.86755        74.28690         0.90422
C         58.55952        73.51281         0.85352
C         61.00336        59.18344         1.28003
C         62.24400        61.31774         1.32664
C         61.05350        60.54722         1.08719
C         62.30657        62.69994         1.18990
C         61.18312        63.46541         0.51792
C         62.25068        65.57963         1.39871
C         61.12487        64.90290         0.98441
C         62.24225        67.02732         1.58886
C         61.03629        67.78204         1.39467
C         62.15241        69.90946         1.90306
C         60.98198        69.18112         1.45953
C         62.16288        71.28469         1.98945
C         61.08302        72.07409         1.36350
C         62.09175        74.20852         2.05828
C         61.03535        73.54539         1.53818
C         63.45249        63.43339         1.60698
C         64.63824        65.56343         2.05374
C         63.47993        64.83996         1.67262
C         64.62871        66.96306         2.22364
C         63.39336        67.68028         2.03119
C         64.60337        69.83962         2.71039
C         63.30114        69.10651         2.39230
C         64.61484        71.30284         2.61007
C         63.31263        72.00691         2.58466
C         64.60356        74.28796         2.61453
C         63.28953        73.50816         2.60195
C         65.83558        67.69566         2.46567
C         67.06944        69.84267         2.56949
C         65.86646        69.08551         2.58263
C         67.06836        71.24079         2.57901
C         65.81969        71.99128         2.58708
C         67.07986        74.07660         2.52605
C         65.86087        73.43819         2.57005
C         68.30072        71.97204         2.53970
C         68.30270        73.34280         2.50753
O         63.70233        69.36291         3.77528
O         38.72687        64.36389        -2.29456
O         53.11045        57.75962        -2.36273
O         36.65591        52.30402        -3.28102
O         45.26921        53.51942        -4.10335
O         50.04949        54.46713        -3.59249
O         58.88455        59.00241         2.46222
O         56.15861        56.66173         2.10422
O         47.42063        52.07485        -4.03290
O         45.68107        42.81766         2.73921
O         52.47574        52.32702         0.63675
O         40.85593        49.61710        -3.68770
O         47.43650        44.33276        -1.51508
O         45.86916        49.55425        -3.53910
O         29.81972        64.03906         2.91389
O         50.12273        64.84695         0.25295
O         51.16840        69.59365        -2.43830
O         25.76905        69.56019         0.79334
O         42.89099        69.85818        -2.28288
O         60.83524        71.70871        -0.05071
O         24.66585        71.93094         2.10279
O         38.82928        55.82191        -3.47665
O         52.25889        45.24440        -1.90491
O         48.59370        72.13513        -2.89053
O         33.45700        61.59245         1.82340
O         41.99651        58.84162        -3.47100
O         56.51915        63.22194         1.74751
O         48.06371        61.99334        -3.70678
O         32.31248        58.00486        -2.07112
O         38.34322        65.91753         1.14226
O         41.69797        46.61667         0.80379
O         44.26088        73.29899        -0.17753
O         46.53536        68.81395        -3.50669
O         37.48155        53.93311        -0.64445
O         52.52774        47.83687        -2.40571
O         43.21239        52.08663        -4.17939
O         32.21245        67.06743        -1.00018
O         59.45211        65.45156        -0.70663
O         44.66578        46.80762         0.92651
O         27.12532        67.04309         0.21457
O         51.44440        52.08693        -2.99837
O         37.52935        69.63348        -1.09118
O         37.91952        50.04320        -3.69490
O         50.35547        56.53557        -0.37693
O         53.75865        60.96621         1.25032
O         44.75976        56.45989        -0.77327
O         37.49885        71.70805         1.82245
O         45.62665        72.79547        -2.95764
O         40.83540        70.62220         1.18982
O         34.65971        59.17449        -2.21164
O         32.21073        69.64123        -0.97242
O         63.01780        72.77030         3.83319
O         49.59692        47.66505        -2.84926
O         59.35824        60.68523        -0.68817
O         38.62031        47.33144         0.04013
O         40.37165        44.61400        -1.88904
O         58.89667        67.18760         2.38123
O         42.25669        41.43950        -0.44444
O         40.96343        56.42413        -0.66981
O         48.63429        56.86362        -3.73105
O         33.88776        56.21651        -3.06879
H         33.49185        57.07732        -3.34335
O         46.28765        37.76788         1.29405
H         45.48932        38.06325         0.80604
O         59.68208        75.55810         1.52577
H         59.45056        75.41356         2.46584
O         43.10104        62.62577         0.03563
H         42.37344        62.09261         0.42191
O         42.35811        65.82452        -3.42443
H         43.09053        66.33588        -3.85635
O         64.61803        75.21621         1.51910
H         64.74979        74.71989         0.68574
O         61.52494        63.53399        -0.90166
H         60.85919        64.13312        -1.31719
O         37.60631        47.57344        -3.34928
H         37.79756        48.25694        -4.03575
O         53.36118        67.79347         1.67480
H         53.18730        66.84919         1.91943
O         46.21097        63.63838        -4.16898
H         46.70601        62.89046        -4.58289
O         53.89711        65.30261        -2.09141
H         53.20735        64.82277        -2.61640
O         51.76444        63.91398        -2.85699
H         51.73170        63.10245        -3.40762
O         44.67257        67.20069        -3.84632
H         45.06501        68.02376        -4.23126
O         36.69337        56.10069         0.48253
H         37.29005        55.34380         0.68603
O         37.10072        60.20918         1.12281
H         37.02709        61.07159         1.58559
O         41.45621        35.79760         3.51215
H         41.79930        35.48622         2.64973
O         52.44402        65.29207         1.27709
H         51.51157        65.13847         1.55750
O         37.70736        45.00131        -2.67938
H         38.60661        44.62850        -2.83495
O         49.43693        67.33927         0.58907
H         49.64257        66.51202         1.08576
O         40.10136        49.44490        -0.16278
H         39.90037        48.82075         0.57395
H         24.58972        74.57894         5.64574
H         26.51281        74.81920         4.03717
H         28.53392        74.97633         2.74462
H         30.76703        75.07155         1.77657
H         33.09898        75.14667         0.98584
H         35.45080        75.17412         0.11468
H         37.78221        75.11427        -0.73197
H         40.18406        75.03543        -1.49867
H         42.42678        74.57471        -2.72270
H         45.38081        74.95625        -2.83617
H         47.63164        75.45616        -1.01785
H         50.00085        75.31182        -0.17120
H         52.42611        75.31463         0.07107
H         54.88609        75.32216         0.39500
H         57.37064        75.30839         0.73091
H         60.15890        74.49719        -0.16340
H         62.07849        75.30871         2.09533
H         64.62635        74.91024         3.54820
H         67.11336        75.17506         2.50790
H         23.10437        68.92588         4.44059
H         22.43460        70.83416         5.83359
H         22.79474        73.16323         6.59866
H         25.02118        64.85014         2.76557
H         23.96749        66.95124         3.44329
H         27.29596        60.59853         1.49128
H         26.14253        62.72300         2.16538
H         29.62344        56.40415         0.31128
H         28.43680        58.52423         0.86045
H         32.06558        52.28469         0.12394
H         30.85006        54.33764         0.07888
H         34.51626        47.91271        -0.25457
H         33.32711        50.02996        -0.03985
H         36.78434        43.68526        -0.21324
H         35.58852        45.79853        -0.49965
H         39.19783        39.93408         1.78294
H         37.99177        41.87947         0.88197
H         41.97380        37.04205         5.05764
H         40.35346        38.08692         2.93311
H         44.94637        33.21953         5.79626
H         42.79045        34.34469         5.22462
H         47.11757        34.30304         5.24697
H         48.36117        36.25108         4.43053
H         49.64036        38.13087         3.46497
H         50.91933        39.91144         2.32480
H         52.20071        41.79259         1.33635
H         53.42798        43.73359         0.75076
H         54.71251        45.75083         0.32164
H         55.91030        47.88339         0.40755
H         56.99826        50.03528         0.70447
H         58.15988        52.18354         1.01380
H         59.32721        54.29819         1.28194
H         60.60694        56.39606         1.22889
H         61.92517        58.64685         1.55419
H         63.12318        60.78675         1.72512
H         64.33051        62.87148         1.96224
H         65.57723        65.01376         2.21801
H         66.78781        67.14411         2.45294
H         68.03136        69.30985         2.52724
H         69.24678        71.41188         2.53321
H         69.25294        73.89359         2.47530
