         344
 CSIRO Nanostructure Databank - Neutral Graphene Oxide Data Set
C          2.02702         2.53907         2.69879
C          1.90731         3.88386         2.26094
C          2.93009         1.68510         2.12853
C          2.83130         4.43054         1.34529
C          1.76867         6.72901         1.32365
C          1.74219         8.04256         0.85666
C          2.76640         5.81781         0.91085
C          2.58967         8.45628        -0.19688
C          1.47592        10.64173        -0.52680
C          1.45108        12.00417        -0.79762
C          2.66201         9.87169        -0.63082
C          2.63009        12.70365        -1.10157
C          1.45827        14.92589        -1.04611
C          1.48171        16.30910        -1.06132
C          2.66109        14.15861        -1.24647
C          2.66294        17.02347        -1.34497
C          2.72266        18.43006        -1.17337
C          3.75807         2.11562         0.95069
C          3.86925         3.61323         0.82671
C          5.08463         1.42827         0.91875
C          5.01279         4.20117         0.20409
C          3.72559         6.26342        -0.04231
C          3.44637         7.47320        -0.70999
C          4.97914         5.56191        -0.22785
C          5.25335         8.37990        -1.38985
C          3.85394        10.52321        -1.00917
C          3.85684        11.95819        -1.18367
C          5.13649         9.86100        -1.53228
C          5.07537        12.64956        -1.34868
C          3.84751        14.81690        -1.54153
C          3.84922        16.28272        -1.89699
C          5.11455        14.06182        -1.85301
C          5.15500        16.97777        -1.62148
C          3.91471        19.11152        -1.25072
C          5.16258        18.40403        -1.43310
C          6.23831         2.06600         0.51849
C          6.23185         3.46692         0.12559
C          7.48045         1.35863         0.46820
C          7.43318         4.12408        -0.23725
C          6.19768         6.20904        -0.62666
C          6.27439         7.65803        -0.86347
C          7.41659         5.49907        -0.59349
C          7.52359         8.37934        -0.39189
C          6.38941        10.52836        -1.05130
C          6.31416        12.00776        -0.80183
C          7.54600         9.84020        -0.82282
C          7.60543        12.71227        -1.06868
C          6.37335        14.82283        -1.47142
C          6.37581        16.24723        -1.53949
C          7.58567        14.12638        -1.25101
C          7.62166        16.95734        -1.45215
C          6.35843        19.10556        -1.38606
C          7.64548        18.43511        -1.75095
C          8.66947         1.98982         0.13038
C          8.69043         3.40469        -0.19672
C          9.90054         1.27396         0.25270
C          9.91026         4.08224        -0.33798
C          8.69240         6.16710        -1.09616
C          8.76613         7.62530        -0.75078
C          9.96660         5.47937        -0.60407
C          9.98643         8.37225        -1.19072
C          8.81395        10.55584        -0.77521
C          8.80517        12.00237        -0.91124
C         10.00971         9.84339        -0.79358
C         10.05143        12.70659        -0.95352
C          8.82816        14.83853        -1.18167
C          8.83027        16.27570        -1.27271
C         10.03453        14.11906        -1.07915
C         10.06161        17.00611        -1.07669
C          8.86598        19.13756        -1.23594
C         10.03874        18.45543        -0.98614
C         11.12702         1.91330         0.14734
C         11.20963         3.31194        -0.42026
C         12.31981         1.24517         0.48046
C         12.39187         4.09335         0.10420
C         11.19622         6.17274        -0.47634
C         11.28089         7.60977        -0.84743
C         12.38117         5.52261        -0.00851
C         12.51622         8.38143        -0.47054
C         11.26001        10.54748        -0.66178
C         11.26965        11.98376        -0.72436
C         12.46583         9.85908        -0.39170
C         12.48982        12.67347        -0.53295
C         11.29794        14.86782        -1.12486
C         11.27006        16.32285        -0.90893
C         12.57533        14.11671        -0.80132
C         12.46754        17.00035        -0.53786
C         11.27232        19.13766        -0.68859
C         12.45545        18.45001        -0.47292
C         13.52172         1.95877         0.66841
C         13.50098         3.40814         0.57636
C         14.72636         1.27251         0.91910
C         14.64663         4.15300         1.12496
C         13.58010         6.27037         0.35335
C         13.62639         7.67993         0.20074
C         14.71757         5.60810         0.90035
C         14.75235         8.41628         0.64184
C         13.65031        10.55723        -0.04130
C         13.66387        11.99727        -0.14094
C         14.79954         9.86225         0.45111
C         14.85626        12.74135         0.11687
C         13.69536        14.87905        -0.23366
C         13.63074        16.27965        -0.16623
C         14.85170        14.14475         0.16764
C         14.72845        17.02404         0.54998
C         13.71030        19.13928        -0.26360
C         14.84903        18.46782         0.11901
C         15.94326         1.94748         1.13733
C         15.89216         3.38712         1.50304
C         17.16758         1.28998         0.97987
C         17.20248         4.09680         1.84291
C         15.88814         6.31919         1.27976
C         15.86286         7.73728         1.19559
C         17.09986         5.63072         1.74476
C         16.94291         8.56606         1.84103
C         16.00541        10.57428         0.69689
C         16.15206        11.98086         0.15663
C         17.13090         9.92880         1.22237
C         17.28810        12.74857         0.77204
C         16.05497        14.88157         0.53194
C         16.03975        16.28001         0.58938
C         17.25995        14.17089         0.82504
C         17.22999        17.00204         0.86973
C         16.11668        19.11903         0.26878
C         17.25804        18.44027         0.66199
C         18.39447         2.00251         0.92034
C         18.36684         3.46019         1.08596
C         19.61191         1.33766         0.74021
C         19.48369         4.15204         0.74614
C         18.18388         6.39165         2.15766
C         18.23607         7.82804         2.03048
C         20.11020         5.25045         1.55960
C         19.42232         8.54478         2.04456
C         18.39293        10.59863         1.28704
C         18.44801        12.02635         1.11625
C         19.59248         9.89809         1.58959
C         19.67082        12.69103         1.40132
C         18.40977        14.90131         1.24303
C         18.40386        16.30697         1.24905
C         19.63884        14.14739         1.57349
C         19.65306        17.07129         1.66479
C         18.53256        19.12681         0.77146
C         19.65968        18.50647         1.19788
C         20.87564         2.01349         0.63895
C         20.83928         3.50612         0.64970
C         22.06893         1.38977         0.37810
C         21.83066         4.17540        -0.29830
C         20.76395         6.30638         0.64502
C         21.24704         7.55407         1.31648
C         21.86066         5.66162        -0.19788
C         22.10434         8.41948         0.69624
C         20.88127        10.53656         1.38617
C         20.89660        11.97894         1.39218
C         22.09665         9.85462         1.00066
C         22.14303        12.70035         1.26807
C         20.94618        14.89072         1.56551
C         20.88647        16.32681         1.08390
C         22.18660        14.13315         1.32141
C         22.18843        17.05044         1.31774
C         20.93345        19.28240         1.41470
C         22.20381        18.44936         1.41645
C         23.32741         2.20694         0.23298
C         23.07185         3.40874        -0.71961
C         24.50697         1.43877        -0.30970
C         24.32513         4.26812        -0.80324
C         23.11996         6.41205        -0.40094
C         23.16686         7.79211        -0.10390
C         24.30344         5.70302        -0.75260
C         24.36997         8.50483        -0.28922
C         23.24160        10.59976         0.65760
C         23.31523        11.99712         0.89678
C         24.37178        10.00638        -0.16509
C         24.56258        12.71787         0.67698
C         23.38124        14.84646         1.18719
C         23.39558        16.30576         1.30632
C         24.61151        14.14560         0.93262
C         24.62640        16.98649         1.40914
C         23.43895        19.10360         1.56321
C         24.63804        18.38400         1.56667
C         25.56485         2.11477        -0.86262
C         25.54088         3.58420        -0.93671
C         26.74652         1.43326        -1.32757
C         26.75570         4.28958        -1.14873
C         25.51869         6.43446        -0.90529
C         25.53935         7.83492        -0.69126
C         26.76282         5.73510        -1.16060
C         26.77633         8.59624        -0.88692
C         25.73081        10.53435         0.28749
C         25.71825        12.04803         0.28985
C         26.84838         9.90645        -0.53036
C         26.95491        12.75840         0.08879
C         25.83763        14.82172         0.92890
C         25.93412        16.22723         1.47115
C         27.02249        14.17731         0.45449
C         27.07840        17.00815         0.85577
C         25.95899        19.08701         1.73363
C         26.99125        18.51518         0.75712
C         27.89248         2.12935        -1.66605
C         27.94279         3.57020        -1.49615
C         29.08520         1.46157        -2.13223
C         29.14059         4.26062        -1.71330
C         27.93868         6.43879        -1.37753
C         27.93007         7.93136        -1.61735
C         29.23895         5.69480        -1.27008
C         29.27051         8.58891        -1.32037
C         28.01085        10.73547        -1.02208
C         28.07668        12.09879        -0.38646
C         29.31961         9.96461        -1.03563
C         29.36512        12.82460        -0.36949
C         28.18071        14.92909         0.20389
C         28.18038        16.35743         0.36575
C         29.29412        14.31504        -0.61412
C         29.35895        17.15410        -0.16737
C         28.34580        19.14407         0.94048
C         29.47578        18.51084         0.50845
C         30.22527         2.15740        -2.40720
C         30.29792         3.58492        -2.20028
C         31.44997         4.32328        -2.50928
C         30.43177         6.43634        -1.80625
C         30.47394         7.86281        -1.52446
C         31.49339         5.72872        -2.33983
C         31.70774         8.53577        -1.40171
C         30.56506        10.62534        -0.92645
C         30.63614        12.08346        -0.63035
C         31.74980         9.88895        -1.09618
C         31.79588        12.89832        -1.03622
C         30.63245        14.99829        -0.46752
C         30.66678        16.37547        -0.18867
C         31.79837        14.25190        -0.84867
C         31.87971        17.07445        -0.02560
C         30.76292        19.13583         0.61915
C         31.91921        18.43581         0.33182
O         20.30437        14.59171         2.84241
O         20.59720         7.92353         2.49424
O         19.35376         5.76412         2.63351
O         12.31075         7.86686        -1.86598
O         14.90102         3.70570         2.53125
O         12.22263        14.45939        -2.19245
O          4.13268         7.70502        -1.91769
O         30.20136        12.41614         0.76311
O         21.14201         4.25510         1.96702
O         21.26903         4.98265        -1.38364
O         11.46455         3.13838        -1.85960
H         10.64333         2.78703        -2.26485
O         23.70402         2.73625         1.53283
H         22.89582         3.04832         1.99737
O         24.18411        10.52475        -1.52099
H         23.32432        10.19246        -1.85510
O         28.88773        14.50031        -2.01067
H         28.82032        15.47517        -2.15629
O          7.70583        18.55567        -3.23963
H          6.95950        18.02623        -3.59638
O          5.18581        13.98265        -3.33215
H          4.80412        14.83356        -3.67239
O         17.46169         3.77043         3.23154
H         16.61143         3.89271         3.71003
O         26.42286        18.87624         3.08223
H         27.35495        19.17697         3.13300
O         16.43353         8.83126         3.21331
H         17.13840         9.30942         3.70032
O          3.00696         1.65965        -0.25808
H          2.13002         2.09897        -0.22840
O         29.02315        17.42108        -1.58418
H         29.76531        17.94166        -1.96127
O         27.70047         8.13966        -3.04896
H         27.68685         9.12060        -3.18010
O          6.13029        12.09597         0.68219
H          6.98409        11.83647         1.09266
O         27.72105        10.97341        -2.45775
H         26.87105        11.46343        -2.50691
O         20.69843        16.23433        -0.35557
H         20.72437        17.14321        -0.72394
O         22.81729         2.85937        -2.03236
H         22.38191         3.56781        -2.55627
O         29.49664         5.61161         0.20140
H         30.29782         5.05637         0.31719
O          5.09106        10.11418        -2.97784
H          4.48030         9.44799        -3.36237
O          8.65893         6.00902        -2.55825
H          9.14854         6.78230        -2.93942
O         25.91677        10.10931         1.66362
H         26.74924        10.50394         1.99803
O         21.01315        20.31143         0.42253
H         21.86201        20.78598         0.53115
O          7.45046         8.45978         1.08360
H          6.60113         8.89057         1.31836
O         26.52731        18.82681        -0.59077
H         27.18890        18.43821        -1.21038
O         14.29234        17.07640         1.96168
H         14.97714        17.57459         2.45722
O         19.74487        17.13878         3.10465
H         19.83545        16.20949         3.43538
O         19.71807         6.76155        -0.26687
H         19.79067         6.19501        -1.07279
O         26.26350        16.09052         2.89860
H         26.29980        17.01082         3.26444
O         16.53794        11.80756        -1.26494
H         15.80384        11.32881        -1.70708
O          3.69548        16.31751        -3.41250
H          2.76984        16.04949        -3.60375
O          9.94774         8.41072        -2.66860
H         10.89414         8.45317        -2.95631
H          1.37325         2.18830         3.51092
H          1.12828         4.51813         2.70416
H          2.99841         0.63932         2.46192
H          1.03239         6.42523         2.08006
H          1.03080         8.75413         1.29850
H          0.53654        10.13675        -0.26269
H          0.48873        12.52838        -0.73280
H          0.51462        14.41786        -0.81175
H          0.57349        16.87011        -0.79339
H          1.79522        18.97012        -0.92868
H          5.12214         0.36345         1.19445
H          3.94583        20.20087        -1.10819
H          7.49550         0.29386         0.74505
H          6.34306        20.19960        -1.26259
H          9.86517         0.22577         0.58726
H          8.85145        20.23742        -1.19391
H         12.29424         0.16675         0.69847
H         11.26868        20.23770        -0.65927
H         14.73894         0.17721         0.81352
H         13.74800        20.22464        -0.44624
H         17.16906         0.20572         0.79173
H         16.18277        20.19419         0.04049
H         19.60703         0.23926         0.66859
H         18.57208        20.19067         0.49305
H         22.10947         0.29554         0.26505
H         20.86083        19.77148         2.43718
H         24.54061         0.34367        -0.20349
H         23.46976        20.19865         1.67904
H         26.73678         0.33411        -1.38063
H         25.83674        20.19148         1.55357
H         29.05270         0.37123        -2.27394
H         28.41335        20.16282         1.35628
H         31.11926         1.63643        -2.78041
H         32.32632         3.80693        -2.92599
H         32.39600         6.26264        -2.67148
H         32.64830         7.98203        -1.52753
H         32.72358        10.38635        -0.98981
H         32.69270        12.40340        -1.43463
H         32.72720        14.80238        -1.06099
H         32.83214        16.53650        -0.12543
H         30.81478        20.17224         0.98242
H         32.89545        18.92840         0.44208
