         620
 CSIRO Nanostructure Databank - Neutral Graphene Oxide Data Set
C         23.09088        27.27832         1.12736
C         23.06587        28.65582         0.99690
C         23.07824        31.58563         0.66648
C         23.07540        32.95526         0.46370
C         23.09836        35.83618        -0.10597
C         23.10855        37.19893        -0.30552
C         23.20581        40.06235        -0.91527
C         23.23073        41.42896        -1.15299
C         23.32953        44.28191        -1.84010
C         23.37033        45.62664        -2.12328
C         25.55018        24.46604         1.24782
C         24.36028        25.14316         1.28328
C         25.53482        27.30900         1.21213
C         24.31652        26.57488         1.21049
C         25.48857        28.72635         1.18030
C         24.26451        29.41861         1.02119
C         25.50576        31.60580         0.94124
C         24.27290        30.86880         0.89457
C         25.49438        33.03343         0.77403
C         24.27311        33.71459         0.50592
C         25.47574        35.88900         0.47077
C         24.27219        35.14147         0.28620
C         25.47459        37.31963         0.33885
C         24.27531        37.98168        -0.07190
C         25.35635        40.22366         0.34892
C         24.25961        39.39910        -0.26680
C         25.47554        41.62627        -0.19435
C         24.36893        42.23430        -0.83093
C         25.56814        44.39343        -0.84019
C         24.41600        43.62987        -1.18647
C         25.61068        45.80563        -1.12681
C         24.50181        46.41637        -1.77016
C         25.62688        48.57652        -1.72248
C         24.53750        47.80950        -2.06349
C         28.20279        23.08639         1.39214
C         28.01340        24.44127         0.93119
C         26.80037        25.15009         1.06426
C         27.99274        27.31671         1.02592
C         26.79295        26.60049         1.09270
C         28.03982        28.72779         1.42447
C         26.71989        29.49282         1.41362
C         27.98206        31.64661         1.06631
C         26.74019        30.94032         1.15169
C         27.97007        33.08314         1.00771
C         26.71039        33.78011         0.90029
C         27.87527        35.96834         1.10017
C         26.66980        35.19077         0.81180
C         27.91446        37.40097         0.79553
C         26.68729        38.08349         0.52040
C         27.84853        40.25764         0.63836
C         26.67968        39.50075         0.41546
C         27.86498        41.68333         0.53329
C         26.65377        42.37040         0.08962
C         27.80111        44.57968         0.22368
C         26.66289        43.75682        -0.19469
C         27.89854        45.97742        -0.20391
C         26.75244        46.60364        -0.79348
C         27.87806        48.80784        -0.65717
C         26.75794        48.00343        -1.07151
C         27.94353        50.19425        -0.85636
C         30.45716        22.96675         0.29248
C         29.36206        22.41366         1.18372
C         30.50317        24.46850         0.36732
C         29.18884        25.12657         0.38875
C         30.48783        27.33021         0.50401
C         29.18187        26.67567         0.47007
C         30.53053        28.78388         0.78958
C         29.29955        29.50603         1.21395
C         30.43846        31.67236         0.75292
C         29.22537        30.96731         0.99765
C         30.43254        33.10360         0.80085
C         29.19928        33.77813         0.98818
C         30.44544        35.98774         0.91223
C         29.22063        35.22979         1.19130
C         30.40220        37.40407         0.91378
C         29.13350        38.08249         0.90736
C         30.40976        40.31286         0.95413
C         29.08440        39.54737         1.00511
C         30.35326        41.74253         0.63268
C         29.10356        42.39173         0.60235
C         30.35867        44.60724         0.43625
C         29.10390        43.86451         0.61430
C         30.32653        46.02100         0.31403
C         29.07888        46.68501         0.05131
C         30.34979        48.94200         0.09107
C         29.01658        48.15213        -0.00780
C         30.36048        50.32311        -0.40886
C         29.13190        50.92396        -0.72136
C         33.06506        20.25648         0.71985
C         31.85199        20.92481         0.62366
C         33.00772        23.06510         0.40490
C         31.80316        22.31629         0.49023
C         32.96610        24.50243         0.25573
C         31.68635        25.18659         0.25419
C         32.91984        27.39560         0.18366
C         31.66712        26.64698         0.28266
C         32.91449        28.80321         0.14341
C         31.60486        29.54285         0.05969
C         32.86729        31.69917         0.33360
C         31.66123        30.99282         0.46701
C         32.87258        33.13391         0.43891
C         31.65522        33.83466         0.65089
C         32.86670        35.99690         0.49537
C         31.65085        35.27546         0.67972
C         32.85540        37.42623         0.51468
C         31.63307        38.13938         0.73004
C         32.82922        40.28707         0.43974
C         31.64346        39.55873         0.69719
C         32.80886        41.72928         0.39080
C         31.58045        42.45067         0.46712
C         32.81281        44.60038         0.28549
C         31.57971        43.88712         0.38054
C         32.80565        46.02939         0.24103
C         31.57272        46.75236         0.24820
C         32.82038        48.87696        -0.02436
C         31.59896        48.16897         0.10467
C         32.83160        50.31080        -0.21539
C         31.61743        51.00655        -0.48105
C         32.85023        53.10310        -0.70826
C         31.67859        52.40286        -0.78951
C         35.63698        18.86160         0.89566
C         35.54014        20.25010         0.74180
C         34.28500        20.96231         0.65390
C         35.49766        23.12298         0.30875
C         34.26196        22.38147         0.47486
C         35.43560        24.56510         0.12929
C         34.16877        25.24362         0.15512
C         35.36148        27.41567        -0.09647
C         34.15107        26.68230         0.08406
C         35.34799        28.84574        -0.09621
C         34.11678        29.55064         0.04970
C         35.32158        31.70766        -0.01762
C         34.10331        30.98600         0.09725
C         35.32032        33.14607         0.06621
C         34.09825        33.85554         0.27553
C         35.31398        36.00569         0.14968
C         34.09341        35.28392         0.30638
C         35.30700        37.44057         0.13537
C         34.07131        38.15033         0.30543
C         35.28188        40.29727         0.10669
C         34.05992        39.57409         0.27616
C         35.26630        41.72823         0.12422
C         34.03508        42.44702         0.24533
C         35.28267        44.59069         0.15742
C         34.04262        43.87569         0.23336
C         35.27633        46.02504         0.14593
C         34.04684        46.74050         0.16348
C         35.28862        48.88811         0.07616
C         34.05285        48.16671         0.06329
C         35.28696        50.32223         0.03622
C         34.06850        51.02731        -0.16069
C         35.24485        53.21590        -0.08212
C         34.07655        52.46843        -0.32087
C         35.28715        54.65041        -0.17361
C         37.99908        18.76935         0.18648
C         36.82312        18.15526         0.66125
C         38.08145        20.24110         0.27545
C         36.77436        21.01918         0.62781
C         38.01243        23.13895         0.11552
C         36.72029        22.44758         0.31852
C         37.92047        24.61888        -0.11128
C         36.61181        25.30308        -0.09226
C         37.79512        27.45971        -0.56023
C         36.59677        26.71693        -0.26323
C         37.75234        28.86572        -0.58927
C         36.55616        29.57826        -0.28586
C         37.77298        31.74452        -0.37756
C         36.54621        31.00829        -0.23930
C         37.77460        33.16225        -0.25772
C         36.54078        33.86659        -0.05170
C         37.77116        36.01374        -0.09920
C         36.53795        35.29363         0.00020
C         37.76640        37.43683        -0.12156
C         36.52041        38.15567        -0.04284
C         37.72776        40.32345        -0.18880
C         36.50710        39.59040        -0.06889
C         37.71724        41.70560        -0.05125
C         36.49530        42.44210         0.06316
C         37.75224        44.60284        -0.07595
C         36.50602        43.87460         0.08553
C         37.72220        46.03855        -0.08140
C         36.51527        46.74676         0.08255
C         37.75464        48.91712         0.26366
C         36.51710        48.18743         0.12799
C         37.72321        50.35856         0.41713
C         36.52249        51.03247         0.22028
C         37.76680        53.29579         0.42185
C         36.46878        52.51030         0.35227
C         37.74081        54.78062         0.19183
C         36.42318        55.39106        -0.02689
C         40.37782        15.93969        -0.45915
C         39.22910        16.61980        -0.10836
C         40.20167        18.71378        -1.01438
C         39.12261        18.02376        -0.26926
C         40.17347        20.22346        -1.13869
C         39.14650        20.99349        -0.41108
C         40.35144        23.07698        -0.94468
C         39.18102        22.37260        -0.42792
C         40.25999        24.54155        -1.17729
C         39.00257        25.29264        -0.87934
C         40.22873        27.41478        -1.10513
C         39.03665        26.76648        -0.83674
C         40.23288        28.87531        -1.26505
C         38.93199        29.63355        -1.01777
C         40.19552        31.77755        -0.82631
C         38.98673        31.07476        -0.69951
C         40.22738        33.18108        -0.58570
C         39.00510        33.87536        -0.34997
C         40.22922        36.01889        -0.26057
C         39.00353        35.30419        -0.22238
C         40.21386        37.44093        -0.26104
C         39.00299        38.13312        -0.24228
C         40.26470        40.30782        -0.15339
C         38.99892        39.60294        -0.58540
C         40.25183        41.70396        -0.01688
C         38.97945        42.45875         0.24805
C         40.23558        44.57189        -0.43197
C         38.95252        43.89238        -0.20534
C         40.27718        46.06512        -0.40067
C         38.96102        46.81521        -0.23245
C         40.25581        48.87190         0.46611
C         38.96462        48.22072         0.19591
C         40.31641        50.36946         0.53109
C         38.99055        51.11984         0.62565
C         40.23014        53.17261        -0.04603
C         39.04018        52.55487         0.28540
C         40.19383        54.56702        -0.55566
C         39.02195        55.45393        -0.25807
C         40.24021        57.39632        -1.17865
C         39.05838        56.80405        -0.86735
C         42.78025        15.94374        -1.03487
C         41.55162        16.63123        -0.90139
C         42.69640        18.72610        -1.46333
C         41.50525        18.02687        -1.17194
C         42.68567        20.16785        -1.82251
C         41.42143        20.94455        -1.56576
C         42.76048        23.08461        -1.65864
C         41.49522        22.40761        -1.35404
C         42.70660        24.57810        -1.74565
C         41.49685        25.31360        -1.34918
C         42.72460        27.46612        -1.30820
C         41.48312        26.70587        -1.30221
C         42.71326        28.90126        -1.10954
C         41.50061        29.59770        -1.14345
C         42.77784        31.79648        -0.92715
C         41.44555        31.06020        -1.17598
C         42.71871        33.19746        -0.49317
C         41.47994        33.89762        -0.49999
C         42.71408        36.00792        -0.15026
C         41.47680        35.30548        -0.31752
C         42.74113        37.43421        -0.08413
C         41.50802        38.17425        -0.54337
C         42.68786        40.28190         0.21708
C         41.48562        39.61417        -0.11650
C         42.66685        41.68763         0.30301
C         41.46834        42.38673         0.11105
C         42.75816        44.57103         0.16615
C         41.51912        43.83685        -0.15268
C         42.74362        46.00615         0.10908
C         41.54307        46.70159        -0.05306
C         42.78967        48.86700         0.03797
C         41.54190        48.13170         0.26066
C         42.68016        50.27256        -0.49730
C         41.50167        51.06709         0.01736
C         42.73361        53.14253        -0.48522
C         41.48536        52.43925        -0.18502
C         42.75739        54.51728        -0.70051
C         41.49358        55.24263        -0.93204
C         42.72177        57.36677        -1.03435
C         41.50599        56.71268        -1.03967
C         43.95325        16.64993        -1.23061
C         45.18109        18.83489        -1.24860
C         43.94347        18.05842        -1.36201
C         45.20576        20.22500        -1.43445
C         44.01405        20.89406        -2.08498
C         45.28812        23.09522        -2.11547
C         43.94394        22.40613        -1.84734
C         45.28283        24.62059        -1.87861
C         43.98621        25.37517        -1.81719
C         45.15293        27.45887        -0.97714
C         43.95828        26.79188        -1.37355
C         45.16762        28.84022        -0.68787
C         43.95839        29.60095        -0.84604
C         45.15452        31.66829        -0.18283
C         43.97409        30.99601        -0.64003
C         45.14609        33.10449        -0.00561
C         43.92225        33.85105        -0.16139
C         45.14626        35.96844         0.21326
C         43.92316        35.27235        -0.00547
C         45.14642        37.37992         0.38051
C         43.92369        38.11206         0.23650
C         45.09531        40.22135         0.80637
C         43.94686        39.56496         0.41436
C         45.09069        41.67450         1.11042
C         43.85063        42.43781         0.76590
C         45.17786        44.58416         0.58011
C         43.91297        43.89693         0.52185
C         45.19545        46.01107         0.35917
C         43.98247        46.71903         0.24156
C         45.24445        48.82105        -0.12867
C         43.98362        48.15361         0.05130
C         45.22091        50.23465        -0.52624
C         43.97890        51.02547        -0.41415
C         45.25617        53.13875        -0.48782
C         43.99367        52.40396        -0.46859
C         45.24681        54.55961        -0.53088
C         43.98718        55.27093        -0.70983
C         43.93803        56.65565        -0.87920
C         47.53047        18.87143        -0.60608
C         46.35818        18.17723        -0.79608
C         47.59979        20.26817        -0.82090
C         46.41007        20.97287        -1.21895
C         47.65410        23.09082        -1.05402
C         46.44342        22.38767        -1.37173
C         47.69143        24.49592        -1.03808
C         46.50384        25.30472        -1.37456
C         47.62373        27.37586        -0.32682
C         46.37063        26.65967        -0.73855
C         47.62891        28.84250        -0.20165
C         46.38736        29.52917        -0.30714
C         47.58100        31.57609         0.43595
C         46.34688        30.92236        -0.03196
C         47.57371        33.09292         0.59519
C         46.33286        33.81070         0.27613
C         47.60441        35.92795         0.45077
C         46.36337        35.23045         0.31525
C         47.57679        37.35159         0.61204
C         46.37747        38.05505         0.64186
C         47.62885        40.26019         0.89968
C         46.35532        39.47242         1.17680
C         47.62989        41.66105         0.92698
C         46.39900        42.45003         1.31302
C         47.62881        44.55399         0.61326
C         46.38136        43.87315         0.74475
C         47.65732        45.99041         0.38574
C         46.44614        46.71183         0.29032
C         47.71397        48.86044         0.06333
C         46.45578        48.13682         0.04390
C         47.75632        50.25582        -0.12058
C         46.54461        50.98521        -0.52266
C         47.72252        53.15575        -0.31406
C         46.49723        52.45425        -0.41652
C         47.67780        54.56929        -0.28969
C         46.47646        55.24686        -0.41466
C         50.07603        20.25674        -0.40868
C         48.84642        20.96724        -0.65927
C         50.10964        23.07729        -0.43987
C         48.87425        22.36676        -0.73576
C         50.14840        24.45747        -0.49406
C         48.95001        25.21823        -0.85550
C         50.14472        27.39853        -0.12116
C         48.92642        26.70174        -0.58823
C         50.13348        28.80467         0.01936
C         48.86770        29.52559        -0.01277
C         50.09308        31.65014         0.39509
C         48.87828        30.91384         0.23286
C         50.07311        33.06253         0.50904
C         48.86073        33.80612         0.49626
C         50.09134        35.97668         0.10171
C         48.83743        35.20927         0.42666
C         50.13288        37.35135         0.72351
C         48.83949        38.07839         0.89058
C         50.10022        40.23228         0.80254
C         48.85749        39.55487         0.82794
C         50.10936        41.66183         0.85784
C         48.85277        42.38548         0.86266
C         50.13096        44.49125         0.61344
C         48.82798        43.80448         0.75310
C         50.16278        45.96587         0.37033
C         48.89522        46.72594         0.34515
C         50.19789        48.88600         0.43765
C         48.92367        48.12212         0.31542
C         50.22307        50.30737         0.01470
C         48.99344        51.00073        -0.09519
C         50.22203        53.08868        -0.36146
C         48.98121        52.42056        -0.26508
C         51.25759        20.90112        -0.18928
C         52.55374        22.99415         0.10168
C         51.33889        22.33589        -0.13827
C         52.57339        24.46470         0.28863
C         51.23782        25.19264         0.23624
C         52.56374        27.36461        -0.05473
C         51.33863        26.67290        -0.05935
C         52.58667        28.76292         0.09924
C         51.35967        29.48376         0.23049
C         52.57440        31.61525         0.44895
C         51.36431        30.93165         0.39195
C         52.59082        33.05805         0.41713
C         51.35360        33.81138         0.81893
C         52.55486        35.93840         0.20806
C         51.38063        35.23918         0.33153
C         52.56865        37.39816         0.31335
C         51.40077        38.10156         0.58326
C         52.57273        40.24942         0.91413
C         51.36878        39.53251         0.79786
C         52.59103        41.68207         0.95585
C         51.33940        42.34436         0.96365
C         52.59127        44.51976         1.15055
C         51.28381        43.79564         1.31804
C         52.42945        45.95044         1.27078
C         51.39921        46.67810         0.76088
C         52.70883        48.75799        -0.08745
C         51.49513        48.17348         0.65559
C         52.70737        50.26099        -0.24312
C         51.45937        50.98766        -0.16274
C         51.41969        52.39629        -0.34291
C         55.02936        22.96979        -0.03342
C         53.83325        22.32435         0.02377
C         55.15591        24.43859         0.05995
C         53.86549        25.21578         0.15673
C         55.06890        27.39480        -0.54854
C         53.76901        26.58431        -0.52523
C         55.06147        28.82949        -0.15225
C         53.86979        29.45532         0.13904
C         55.05296        31.61035         0.01691
C         53.89183        30.88060         0.63948
C         54.83345        32.88544        -0.42725
C         53.72673        33.71809        -0.01075
C         55.16706        35.95848         0.00190
C         53.82658        35.20499        -0.06755
C         55.15303        37.37725         0.44204
C         53.84945        38.04683         0.67175
C         55.13360        40.25988         1.34279
C         53.82469        39.49523         1.11597
C         55.07919        41.72450         0.93181
C         53.82957        42.42546         0.92090
C         55.04938        44.60170         0.46801
C         53.80670        43.88201         0.93096
C         55.27490        46.06725         0.41303
C         54.32181        47.00472         0.84401
C         55.19872        48.76495        -0.54633
C         54.11264        48.22599         0.19968
C         55.04730        50.09550        -1.01984
C         53.87224        50.82728        -0.77733
C         57.69952        24.53612        -0.68363
C         56.42135        25.17849        -0.27556
C         57.61992        27.39841        -0.23840
C         56.37004        26.66078        -0.53431
C         57.58610        28.80824        -0.06757
C         56.34572        29.53981        -0.07820
C         57.61140        31.67172         0.07983
C         56.35708        30.94956        -0.06346
C         57.71450        33.11290         0.16956
C         56.67693        33.97149        -0.29459
C         57.61448        35.93511         0.71226
C         56.47359        35.26371         0.16738
C         57.59179        37.35980         0.82258
C         56.32399        38.05620         0.67649
C         57.60764        40.22522         1.00329
C         56.30776        39.57158         0.60862
C         57.57257        41.68888         1.07078
C         56.29455        42.37529         0.76557
C         57.63108        44.47060         0.11288
C         56.33866        43.76346         0.29789
C         57.60748        45.81718        -0.35834
C         56.40763        46.60638        -0.26983
C         57.62064        48.53558        -1.17812
C         56.41563        47.98431        -0.65158
C         58.83390        25.26837        -0.63216
C         60.04134        27.39466        -0.09382
C         58.83002        26.69044        -0.29630
C         60.02686        28.75648         0.14473
C         58.81632        29.49771         0.14822
C         59.96240        31.60848         0.80656
C         58.80179        30.93070         0.33203
C         59.97090        32.96071         1.06755
C         58.84229        33.76122         0.74427
C         59.98134        35.93357         1.27989
C         58.82328        35.20130         0.91605
C         59.96620        37.31611         1.34370
C         58.78883        38.06059         1.08460
C         60.04632        40.25128         0.96807
C         58.79652        39.52909         1.08406
C         60.09376        41.58615         0.71325
C         58.90577        42.43610         0.84765
C         60.05086        44.44574        -0.16157
C         58.86052        43.80292         0.25951
C         60.02836        45.71872        -0.70086
C         58.81389        46.44340        -0.78050
C         58.78049        47.79832        -1.23172
O         54.47322        35.74839        -1.27467
O         39.64120        19.38530        -2.21255
O         28.50004        35.65398         2.39014
O         49.55790        37.49915         2.05415
O         47.46083        32.21045         1.76111
O         43.21075        25.11516        -3.02676
O         50.90043        48.83693         1.79054
O         39.38651        29.33522        -2.38265
O         39.22316        24.77917        -2.23443
O         49.12219        26.24707        -1.96819
O         38.61993        55.48051         1.14862
O         45.95638        50.48231        -1.78388
O         27.37868        29.07221         2.67383
O         38.36705        24.10228         1.18906
O         50.35381        44.99778        -0.74118
O         55.79524        27.11877        -1.81144
O         40.94703        48.29766         1.64938
O         55.43614        44.01995        -0.82727
O         53.29256        25.01309         1.47725
O         30.36302        29.13268         2.19279
O         29.74255        40.02236         2.22938
O         37.02431        52.95995         1.64099
O         28.19928        44.40704         1.62527
O         28.91790        25.95772        -0.78587
O         46.79312        26.66882         0.67056
O         46.18951        25.31047        -2.81852
O         53.72265        38.44075         2.12599
O         29.47196        48.76267         1.24229
O         37.80809        20.71608         1.62628
O         41.78063        20.52220        -2.92446
O         44.13775        42.05020         2.17505
O         42.22097        31.63253        -2.27567
O         53.47448        46.64395         1.88466
O         55.79732        33.46313        -1.25580
O         39.78442        50.82451         1.81743
O         41.05399        44.06111        -1.55015
O         39.61892        46.66963        -1.56838
O         58.29311        42.32295         2.17493
O         40.60811        54.62400        -1.95385
O         56.08884        24.87721         1.12805
O         24.95166        40.39295         1.76784
H         25.66306        40.90222         2.21360
O         42.41074        50.07854        -1.94165
H         43.25927        49.83486        -2.37204
O         44.26227        20.72231        -3.50313
H         43.43702        20.98640        -3.96959
O         50.73422        25.17238         1.62097
H         51.52403        25.27464         2.20280
O         39.02527        39.63992        -2.05319
H         39.88394        39.23439        -2.33014
O         52.45450        48.24244        -1.45002
H         53.15876        48.59184        -2.03789
O         30.05901        22.63517        -1.08667
H         29.30611        23.21826        -1.32425
O         51.38192        33.92900         2.28579
H         51.18762        33.04441         2.66172
O         46.55576        42.65900         2.74808
H         45.64646        42.64575         3.13219
O         38.98365        42.57373         1.73526
H         38.11158        42.93556         2.00551
O         54.11356        30.81832         2.09106
H         53.41708        30.24481         2.47481
O         50.93509        43.87657         2.74076
H         51.58062        43.33808         3.24521
O         55.40840        40.25272         2.75520
H         54.99152        39.43961         3.12597
O         56.10310        39.87970        -0.80623
H         56.78031        39.39983        -1.32801
O         50.02081        36.24513        -1.34374
H         50.17204        35.40214        -1.82091
O         41.59001        38.22779        -2.02383
H         41.64853        37.30249        -2.34697
O         45.58691        22.90126        -3.51401
H         46.10850        23.68556        -3.80563
O         46.29396        39.32773         2.63416
H         47.14080        38.93106         2.93205
O         53.44143        26.23352        -1.90345
H         54.19622        26.52360        -2.47041
O         31.20055        29.53310        -1.35236
H         31.93774        29.90884        -1.87849
H         22.14785        26.71288         1.13478
H         22.09378        29.15784         0.90418
H         22.11857        31.05366         0.62865
H         22.11399        33.45237         0.28007
H         22.16111        35.28830        -0.26942
H         22.17521        37.69136        -0.60862
H         22.34272        39.49154        -1.28555
H         22.36878        41.88050        -1.66023
H         22.43500        43.71163        -2.12223
H         22.52038        46.11088        -2.62526
H         25.54717        23.36728         1.27626
H         23.41228        24.58936         1.34666
H         25.61804        49.64931        -1.95656
H         23.67427        48.26894        -2.56612
H         27.39954        22.61159         1.97529
H         27.05871        50.73318        -1.22165
H         29.46400        21.39397         1.58241
H         29.09790        51.99098        -0.97950
H         33.06212        19.16448         0.82643
H         30.92114        20.34220         0.63426
H         32.83715        54.17961        -0.92219
H         30.76060        52.93934        -1.06260
H         34.73621        18.27217         1.11333
H         34.34897        55.19155        -0.35774
H         36.77558        17.05939         0.71627
H         36.36288        56.48757        -0.06365
H         40.43549        14.85205        -0.31103
H         38.39562        16.05694         0.33312
H         40.25367        58.44393        -1.51525
H         38.12275        57.37722        -0.93340
H         42.80524        14.85240        -0.90715
H         42.75386        58.46096        -1.13670
H         44.89969        16.09585        -1.26895
H         44.86772        57.23974        -0.88594
H         48.41387        18.31822        -0.26381
H         46.34828        17.09949        -0.59263
H         48.60214        55.15235        -0.18477
H         46.49505        56.34477        -0.41200
H         50.07610        19.15926        -0.40306
H         50.25064        54.17908        -0.48769
H         52.15639        20.30104         0.00531
H         52.35569        52.96085        -0.44736
H         55.95670        22.38264        -0.09802
H         53.84327        21.22760        -0.04902
H         55.88233        50.60069        -1.52392
H         53.87495        51.88942        -1.06128
H         57.72596        23.46123        -0.91261
H         57.63545        49.58357        -1.50822
H         59.80483        24.80032        -0.85314
H         60.99652        26.85249        -0.13735
H         60.98551        29.27308         0.28536
H         60.86417        31.02839         1.04301
H         60.86796        33.41685         1.50706
H         60.92429        35.40592         1.47727
H         60.89498        37.83926         1.60707
H         60.97968        39.67494         0.90602
H         61.05202        42.03984         0.42395
H         61.01397        43.92715        -0.06479
H         60.96324        46.19418        -1.03003
H         59.71041        48.25846        -1.59567
