         284
 CSIRO Nanostructure Databank - Neutral Graphene Oxide Data Set
C        -10.77281         0.70756        -0.52575
C        -10.04220         1.60502         0.47874
C         -8.66004         0.96327         0.74449
C         -7.36857         1.71181         0.38235
C         -6.33755         0.82067        -0.29726
C         -5.08867         1.50066        -0.75486
C         -3.81790         0.80288        -0.28480
C         -2.55712         1.57139        -0.59293
C         -1.27309         0.82617        -0.74697
C         -0.08976         1.47972        -0.04008
C          1.23291         0.74217        -0.29471
C          2.50550         1.45667         0.02402
C          3.68249         0.59444         0.52551
C          5.01962         1.35724         0.51981
C          6.31874         0.60606         0.15500
C          7.46041         1.53196        -0.22402
C          8.75843         0.85277        -0.47865
C          9.96293         1.53272         0.11088
C         11.01539         0.67831         0.70738
C         -9.94125         3.05548         0.10106
C         -8.76270         3.73211        -0.20678
C         -7.53777         3.01578        -0.35249
C         -6.38619         3.68782        -0.92313
C         -5.01190         3.00098        -1.11509
C         -3.85459         3.76876        -0.45227
C         -2.59651         3.01418        -0.14839
C         -1.28901         3.75797        -0.08962
C         -0.02442         2.97909        -0.34287
C          1.26958         3.69219        -0.11147
C          2.35735         2.86466         0.57788
C          3.68295         3.61633         0.70145
C          4.98691         2.85309         0.59048
C          6.07632         3.63615        -0.13464
C          7.40005         2.89580        -0.17690
C          8.63618         3.67737        -0.05380
C          9.74465         2.93373         0.64088
C         -8.71981         5.18502        -0.11235
C         -7.55091         5.88897        -0.19434
C         -6.39419         5.26561        -0.85198
C         -5.06495         5.98612        -0.93608
C         -3.76257         5.24714        -0.76307
C         -2.49569         6.01987        -0.49586
C         -1.24599         5.24516        -0.23856
C          0.08642         5.88987        -0.50393
C          1.29163         5.17823        -0.00719
C          2.47168         5.86343         0.18286
C          3.69980         5.10846         0.57227
C          5.02429         5.83557         0.63589
C          6.31753         5.04983         0.47871
C          7.39100         5.80662        -0.37244
C          8.67710         5.03451        -0.15513
C         -7.47271         7.28010         0.41396
C         -6.25183         8.09391         0.00103
C         -5.06831         7.47082        -0.69118
C         -3.72638         8.16836        -0.65477
C         -2.46345         7.37934        -0.62333
C         -1.17434         8.21110        -0.78167
C          0.12988         7.39577        -0.63194
C          1.38530         8.06217        -0.21616
C          2.52779         7.30839         0.05685
C          3.83948         8.00043         0.05581
C          5.06340         7.32761         0.60612
C          6.42763         8.04705         0.62040
C          7.49632         7.27611        -0.10025
C         -6.03539         9.34154         0.77241
C         -4.84968         9.97795         0.81296
C         -3.65107         9.50214         0.09289
C         -2.32685        10.00072         0.53138
C         -1.16520         9.45440         0.10587
C          0.11391        10.25844         0.16314
C          1.40789         9.49998        -0.03515
C          2.58716        10.18807         0.05351
C          3.87712         9.50666        -0.09036
C          5.16807        10.19439         0.17497
C          6.32371         9.52837         0.32915
C        -10.75454        -0.62611        -0.37602
C         -9.96561        -1.27737         0.75208
C         -8.62319        -0.53122         0.86692
C         -7.38443        -1.27982         0.52189
C         -6.28051        -0.62565         0.06910
C         -5.07406        -1.36886        -0.40502
C         -3.76396        -0.67577        -0.55094
C         -2.60241        -1.35946        -0.70378
C         -1.26999        -0.69263        -1.02521
C         -0.12473        -1.45478        -0.35709
C          1.16831        -0.75475        -0.11016
C          2.45872        -1.60035        -0.12105
C          3.67029        -0.67660        -0.32288
C          4.90802        -1.27975        -0.91312
C          6.21109        -0.47049        -0.94705
C          7.47733        -1.34704        -0.87541
C          8.78542        -0.64134        -0.69139
C         10.04944        -1.42362        -0.30407
C         10.99671        -0.65824         0.59293
C         -9.84048        -2.78725         0.65230
C         -8.69116        -3.48513         0.81780
C         -7.35714        -2.75497         0.91731
C         -6.32822        -3.56116         0.11811
C         -5.08587        -2.85044        -0.32047
C         -3.79262        -3.59712        -0.25324
C         -2.54937        -2.84284        -0.52466
C         -1.36310        -3.59028        -1.10759
C         -0.08708        -2.98853        -0.48659
C          1.15914        -3.54412        -1.18087
C          2.41833        -2.67456        -1.25729
C          3.72440        -3.46885        -1.19628
C          4.90411        -2.77870        -1.01353
C          6.14976        -3.44158        -0.63776
C          7.34688        -2.77637        -0.48193
C          8.51689        -3.41818         0.11798
C          9.70388        -2.77849         0.27216
C         -8.62757        -4.93455         1.06727
C         -7.47820        -5.66139         0.97066
C         -6.29629        -5.03103         0.32085
C         -4.92299        -5.67367         0.46439
C         -3.87627        -5.09050        -0.53166
C         -2.52088        -5.78022        -0.44513
C         -1.35036        -5.08140        -0.79338
C         -0.11017        -5.76309        -0.86941
C          1.15163        -5.04179        -1.24120
C          2.44980        -5.75462        -1.19262
C          3.72446        -4.96302        -1.50053
C          4.89312        -5.65803        -0.82464
C          6.06275        -4.88662        -0.32110
C          7.30541        -5.62427         0.02502
C          8.36889        -4.80729         0.72142
C         -7.36130        -7.10216         1.43889
C         -6.18744        -7.88803         0.83961
C         -4.96825        -7.17794         0.35675
C         -3.61943        -7.86576         0.52928
C         -2.46070        -7.16477        -0.16525
C         -1.24921        -7.86065        -0.33428
C         -0.07987        -7.15486        -0.69554
C          1.20025        -7.92613        -0.93396
C          2.47419        -7.09621        -0.96164
C          3.74415        -7.89121        -1.04119
C          5.03442        -7.13538        -1.06122
C          6.37806        -7.83037        -0.80180
C          7.40159        -6.95785        -0.11397
C         -5.97740        -9.29374         1.28759
C         -4.84827        -9.97132         1.01420
C         -3.71114        -9.36988         0.19925
C         -2.36371       -10.06475         0.47099
C         -1.17690        -9.38515        -0.25766
C          0.16891        -9.78298         0.33384
C          1.28604        -9.10655         0.01483
C          2.65527        -9.47418         0.53350
C          3.71066        -9.35201        -0.59376
C          5.03999        -9.83641        -0.06137
C          6.18731        -9.15105        -0.08368
O          9.61753        -5.49093         0.75619
H          9.93090        -5.61091        -0.16364
O         -0.04601        -3.53493         0.84760
H          0.40131        -2.86940         1.42570
O         -6.74119        -4.45412        -0.96788
O          8.34570        -1.07323        -2.02760
O         -2.91697        -3.23398         0.84795
O         -2.15207       -10.09003         1.89250
H         -1.41894       -10.70460         2.09845
O         -1.88514         1.50475        -1.88780
O         -5.32995        -2.19847        -1.61055
O         -1.18463         8.82586        -2.03604
O          4.04921         8.61964        -1.25667
O         -4.68883         3.02598        -2.50969
H         -5.35420         2.48481        -2.98748
O         -1.20109         4.61335         1.09734
O          4.44404        -7.61047        -2.31234
O          0.24735        -1.05190         0.98790
O         -5.92438        -7.69536        -0.60714
O          6.73951        -0.08948         1.34393
O          9.25705         2.86383         2.06553
H          8.47516         3.47525         2.14889
O          6.89643         4.84170         1.79566
H          6.15323         4.64591         2.41052
O          3.32871       -10.20045        -1.68820
H          2.55774        -9.78099        -2.14119
O          9.73897         1.53978        -1.32603
O         -6.00087         0.90874        -1.73099
O          4.95171        -5.27946         0.58518
O          6.24081         0.27673        -2.16863
H          6.05471        -0.32576        -2.91818
O          0.29821         6.51487        -1.79021
O         -3.53825         3.37802         0.90265
O          5.27372         2.08643         1.78350
O          0.95875        -4.21982        -2.45294
O          4.90551         6.63770         1.87595
O         -6.97519        -2.79994         2.26318
O          0.17963        10.99544         1.42215
O         -4.28661         5.57914        -2.08755
O         -3.73752         9.41626        -1.36887
O          5.49521         3.72834        -1.44616
H          6.14053         4.14928        -2.06079
O         -6.74844         4.54691        -2.04584
O          0.80367         3.33908        -1.46519
O         -6.08796         8.19065        -1.44885
O          7.00284         5.74273        -1.78773
H          7.65754         6.26099        -2.30213
O          2.09589         1.23859        -1.34339
O         -1.40989        -3.41417        -2.52918
H         -2.16278        -3.93477        -2.87918
O         -3.34391        -7.71536         1.95616
H         -2.74248        -8.45065         2.23532
O         -8.54603         0.33042         2.05804
O          1.87726         2.65770         1.93776
H          2.18253         3.43514         2.46913
O          3.95664        -0.52481        -1.72230
O          3.60942         4.43854         1.90794
O         -4.53946        -5.32624         1.80948
H         -3.80047        -5.91829         2.09082
O          0.30236         9.96442         2.46437
H          0.41069        10.51875         3.27473
O         10.80404        -1.67943        -1.52024
H         10.14477        -1.70259        -2.25333
O         -7.18073        -7.08890         2.86692
H         -6.47503        -6.43964         3.07770
O         -1.22020        -9.89287        -1.60865
H         -0.47346        -9.48325        -2.10920
O         -4.32343        -5.28190        -1.88677
H         -5.25910        -4.96002        -1.94848
O          3.85456        -5.05895        -2.99434
O         -3.94212         0.85210         1.17272
H         -3.07087         0.64948         1.57786
O          6.95429        -8.15282        -2.09734
H          6.22747        -8.55089        -2.62942
O          8.67425         1.52722         2.33431
H          7.26065         0.54562         1.91063
O          1.11430        -8.51295        -2.28924
H          1.14346        -7.77350        -2.93558
O         -0.44089         1.37156         1.35752
H          0.31128         1.72688         1.89540
O          3.40062         0.20217         1.88337
H          3.85309         0.84864         2.47455
O         -3.99314        -9.53603        -1.19548
H         -4.82117        -9.03475        -1.39034
O        -10.71800        -1.05303         1.98003
H        -10.12360        -1.28332         2.72719
O          2.57111        -2.30791         1.11725
H          2.72994        -1.64196         1.82679
O         -8.64866         8.02552         0.09169
H         -8.57485         8.30308        -0.84595
O         -1.02245        -0.84491        -2.43351
H         -1.52499        -0.14334        -2.90610
O          6.96565         8.00446         1.98603
H          6.55717         7.20985         2.41518
O          2.28109        -1.99949        -2.51531
H          1.95010        -2.65809        -3.16665
O          5.26442        -5.04738        -3.31039
H          5.44790        -6.00503        -3.48772
O        -10.82072         1.62670         1.68770
H        -10.91184         0.68350         1.99412
O         -6.74089         2.11462         1.63097
H         -7.02381         1.45596         2.31215
O          3.04365        -8.55321         1.55936
H          2.35883        -8.54701         2.25842
H         11.77720        -1.25084         1.09416
H         11.76231         1.16931         1.34994
H         10.69423         3.52125         0.67714
H          9.60710         5.57899         0.07156
H          8.48591         7.75223        -0.19119
H          7.26133        10.09306         0.44400
H          5.17881        11.29318         0.10271
H          2.58008        11.26044         0.29941
H          0.04412        11.06291        -0.61444
H         -2.29996        10.92633         1.12931
H         -4.73308        10.86988         1.44778
H         -6.88494         9.71900         1.36046
H         -7.45833         7.16447         1.53309
H         -9.62067         5.69012         0.26729
H        -10.85419         3.65097         0.26036
H        -11.37065         1.17229        -1.32426
H        -11.32377        -1.26938        -1.06448
H        -10.79979        -3.32995         0.61972
H         -9.54823        -5.42244         1.42638
H         -8.31845        -7.64974         1.23820
H         -6.78131        -9.76598         1.87283
H         -4.74587       -11.01379         1.35369
H         -2.42528       -11.12251         0.10152
H          0.24341       -10.68394         0.96699
H          2.63973       -10.52371         0.94224
H          5.02190       -10.83547         0.40339
H          7.09560        -9.60956         0.33806
H          8.32939        -7.45700         0.20885
H          8.04223        -4.67672         1.79113
H         10.52473        -3.33395         0.75473
