         334
 CSIRO Nanostructure Databank - Neutral Graphene Oxide Data Set
C         30.30001        57.14999         0.33945
C         30.26816        58.53982         0.46768
C         29.08439        59.28774         0.31287
C         30.31895        61.39546         0.36064
C         29.11612        60.68898         0.29501
C         32.52362        52.86001        -0.08441
C         32.71995        54.23546         0.01458
C         31.55599        55.05291         0.18476
C         32.72335        57.27388        -0.20056
C         31.52188        56.43756         0.19261
C         32.78382        58.54869         0.59622
C         31.51306        59.26039         0.93443
C         32.77468        61.40643         0.45307
C         31.55739        60.73139         0.52982
C         35.29639        48.55743        -0.15563
C         35.22693        50.00126         0.26335
C         33.97241        50.67868        -0.32780
C         35.48882        52.98874         0.45924
C         33.58250        51.88681         0.14862
C         35.35888        54.33999         0.15223
C         34.03886        54.92841        -0.36304
C         35.31918        57.19579         0.10325
C         34.04563        56.48267        -0.25244
C         35.31491        58.61240         0.52548
C         34.03894        59.27189         0.96696
C         35.23925        61.43738         0.60218
C         34.02829        60.75774         0.62749
C         37.78320        44.35384        -0.72214
C         37.75436        45.76733        -0.61371
C         36.53752        46.46878        -0.48367
C         37.74047        48.64492        -0.39229
C         36.49629        47.88729        -0.32526
C         37.71164        50.04513        -0.41267
C         36.52404        50.77280        -0.07395
C         37.74928        52.94320        -0.45603
C         36.58112        52.17369         0.02876
C         37.81929        54.37369        -0.10930
C         36.59240        55.06691         0.00702
C         37.81364        57.15246         0.32561
C         36.60499        56.46716         0.19584
C         37.78377        58.56836         0.84067
C         36.48938        59.30114         0.61681
C         37.72255        61.43462         0.64502
C         36.50805        60.75947         0.68265
C         40.28698        40.02524        -0.72465
C         40.33913        41.51454        -0.94075
C         39.01608        42.22599        -0.84652
C         40.26838        44.32708        -0.58448
C         38.99973        43.60800        -0.72466
C         40.28040        45.79280        -0.91904
C         38.98858        46.51184        -0.60972
C         40.24146        48.61060        -0.43182
C         38.98982        47.90904        -0.50478
C         40.21469        50.10402        -0.24833
C         38.99162        50.71715        -0.92655
C         40.27571        52.99369        -0.60127
C         39.01622        52.24356        -0.83085
C         40.29180        54.34719        -0.29802
C         39.04354        55.06548        -0.10969
C         40.30009        57.16677         0.25094
C         39.04962        56.46603         0.15995
C         40.26461        58.59858         0.62427
C         39.01096        59.35452         0.52391
C         40.23319        61.48663         0.51662
C         39.00094        60.75238         0.58083
C         42.70686        35.77125        -0.43419
C         42.62997        37.15388        -0.21925
C         41.45907        37.89408        -0.45325
C         42.67546        40.04769        -0.08585
C         41.42947        39.32166        -0.38888
C         42.67869        41.45537        -0.03452
C         41.34835        42.16974         0.00483
C         42.67655        44.35192        -0.04936
C         41.43063        43.66013        -0.25510
C         42.67738        45.79244        -0.10258
C         41.49661        46.50582        -0.39566
C         42.72832        48.66334        -0.24993
C         41.46874        47.92903        -0.34709
C         42.75586        50.02822        -0.48953
C         41.50028        50.75476        -0.73448
C         42.82174        52.97724        -0.54890
C         41.54071        52.26545        -0.78334
C         42.76872        54.41497        -0.37130
C         41.55635        55.08190        -0.21634
C         42.76685        57.26747         0.11180
C         41.52257        56.51896         0.03841
C         42.78889        58.66617         0.35384
C         41.54267        59.38235         0.66824
C         42.71940        61.53499         0.40808
C         41.48957        60.85436         0.51183
C         45.19779        33.00859        -0.80452
C         43.98708        33.68490        -0.75835
C         45.15698        35.69420        -0.00158
C         43.94035        35.04927        -0.37277
C         45.13051        37.11045         0.42133
C         43.82996        37.86991         0.27175
C         45.09672        40.02859         0.32206
C         43.87608        39.33859         0.13492
C         45.08679        41.43941         0.35962
C         43.88261        42.15742         0.18488
C         45.10207        44.30371         0.37591
C         43.88405        43.62390         0.19647
C         45.08533        45.76772         0.52950
C         43.87686        46.52078         0.18771
C         45.19842        48.60220         0.06888
C         43.94234        47.91348         0.01435
C         45.27192        50.02629        -0.31377
C         44.01097        50.78625        -0.64223
C         45.34683        52.96697        -0.57619
C         44.00140        52.26741        -0.52994
C         45.29336        54.42415        -0.18836
C         44.05165        55.18969        -0.56952
C         45.20221        57.26991         0.25751
C         44.01303        56.59589        -0.02505
C         45.23261        58.68918         0.43376
C         43.99229        59.39483         0.39035
C         45.19390        61.53047         0.48731
C         43.97188        60.84737         0.44483
C         46.39100        33.65997        -0.46043
C         47.65057        35.67495         0.43140
C         46.38113        35.00419        -0.05849
C         47.62679        37.18191         0.33616
C         46.39499        37.87655         0.39112
C         47.58975        39.99707         0.33305
C         46.37140        39.29538         0.38638
C         47.57868        41.48637         0.11962
C         46.36324        42.13745         0.77241
C         47.57633        44.28813         0.47121
C         46.35828        43.62413         0.51049
C         47.62366        45.74125         0.09749
C         46.40208        46.49882         0.55666
C         47.67627        48.61654         0.29165
C         46.40817        47.94270         0.28560
C         47.71927        50.02901         0.35544
C         46.43940        50.76787         0.24803
C         47.70701        52.96608         0.39299
C         46.42166        52.25171         0.22568
C         47.70476        54.32562         0.35602
C         46.44648        55.05440         0.16837
C         47.69146        57.21780         0.85669
C         46.42683        56.49078         0.52896
C         47.70500        58.70170         0.79884
C         46.45330        59.39687         0.62321
C         47.65174        61.53948         0.72561
C         46.44873        60.84337         0.61181
C         48.82635        37.88695         0.30159
C         50.06052        40.03769         0.32056
C         48.83739        39.31040         0.30401
C         50.10287        41.45239         0.51801
C         48.85542        42.17934         0.52774
C         50.05750        44.30945         0.77576
C         48.84076        43.58335         0.61684
C         50.09090        45.73193         0.67113
C         48.89854        46.45944         0.45032
C         50.14292        48.57432         0.51558
C         48.90341        47.87248         0.42542
C         50.15633        50.01148         0.59235
C         48.92521        50.72110         0.54036
C         50.18900        52.89078         0.77342
C         48.87689        52.17840         0.93783
C         50.20912        54.29267         0.73509
C         49.00526        55.08469         0.28109
C         50.14414        57.16073         1.04649
C         48.99119        56.50517         0.79272
C         50.20824        58.66325         1.19899
C         48.88798        59.36924         1.00168
C         50.15998        61.42872         0.38535
C         48.94335        60.87064         1.09151
C         51.30270        42.14346         0.72185
C         52.56779        44.32949         0.96273
C         51.29389        43.56593         1.20793
C         52.59346        45.68971         0.80144
C         51.34129        46.44282         0.69547
C         52.64019        48.55946         0.26360
C         51.35618        47.83108         0.55798
C         52.63086        50.00602         0.71012
C         51.39317        50.70953         0.76929
C         52.62395        52.86225         0.89392
C         51.39851        52.15923         0.86838
C         52.64313        54.26991         0.87632
C         51.42617        54.98030         0.86303
C         52.63594        57.14612         0.58888
C         51.45926        56.44238         1.22503
C         52.55564        58.49052         0.21007
C         51.19491        59.16038         0.09844
C         52.45348        61.28138        -0.46120
C         51.24592        60.67429         0.03975
C         53.83991        46.43497         0.80151
C         55.10438        48.55797         0.75248
C         53.88433        47.80653         0.67626
C         55.10152        49.95123         0.75750
C         53.85271        50.66440         0.82331
C         55.05378        52.79627         0.31548
C         53.92531        52.14158         1.12165
C         55.08925        54.29926         0.52049
C         53.90476        54.99989         0.71534
C         55.03297        57.10910         0.06997
C         53.86066        56.43026         0.50571
C         54.96745        58.49500        -0.26530
C         53.72130        59.17368        -0.21847
C         54.85217        61.22631        -1.01733
C         53.64237        60.57679        -0.58711
C         56.33878        50.73026         0.76371
C         57.65694        52.84889         0.56527
C         56.35676        52.07582         0.57835
C         57.53398        54.29252         0.11920
C         56.30648        54.99507         0.21482
C         57.44985        57.08702        -0.45193
C         56.26794        56.39914        -0.04312
C         57.38446        58.49087        -0.77278
C         56.16196        59.17992        -0.68711
C         57.29832        61.35197        -1.43317
C         56.05931        60.57445        -1.05786
C         58.68356        54.98498        -0.27688
C         59.94491        57.03857        -0.95344
C         58.65553        56.35492        -0.57600
C         59.76213        58.42163        -1.52751
C         58.56221        59.14628        -1.33031
C         59.57836        61.06955        -2.43042
C         58.49251        60.49209        -1.76351
C         60.83629        59.01916        -2.19734
C         60.73857        60.32946        -2.66932
O         34.85559        57.06217        -1.33756
O         44.28610        37.39402         1.59256
O         45.77615        46.14067         1.81135
O         34.43931        52.40988         1.16668
O         40.94434        58.88177         1.92977
O         46.84563        56.69716         1.94747
O         38.13644        52.77409        -1.88740
O         41.49588        51.44198        -2.01578
O         44.92125        50.27960        -1.70281
O         46.02218        51.54193         1.45432
O         40.39531        45.85205        -2.39942
H         40.43584        46.80147        -2.64703
O         40.82653        41.98856         1.35257
H         41.47883        42.35678         1.98398
O         32.42035        57.70674        -1.57037
H         33.29311        57.85647        -2.00748
O         35.10666        49.93883         1.71278
H         34.90628        50.85449         2.02083
O         40.84969        41.71874        -2.29896
H         40.14881        41.45561        -2.93090
O         40.10205        50.40313         1.17415
H         40.65203        49.76312         1.67272
O         54.27767        52.30533         2.52565
H         53.49999        52.05058         3.06500
O         47.53215        45.79288        -1.37071
H         48.29504        45.29749        -1.73691
O         37.81909        58.42750         2.32229
H         38.76482        58.40456         2.59362
O         54.76835        52.60765        -1.10312
H         53.92250        53.06454        -1.29909
O         48.62938        52.14027         2.39036
H         47.68902        51.85538         2.50177
O         39.06820        50.36466        -2.32394
H         38.59629        51.07027        -2.82182
O         45.79631        52.92584        -1.95839
H         45.25800        53.58547        -2.45346
O         31.38977        59.27208         2.40423
H         32.30071        59.40133         2.76798
O         46.51227        41.94432         2.20727
H         45.77615        42.41050         2.65550
O         44.16379        55.33608        -2.04420
H         43.31814        55.71394        -2.36898
O         51.72594        56.45157         2.66514
H         51.53658        57.36930         2.97918
O         51.19241        43.46307         2.69829
H         50.35577        42.98707         2.89272
O         50.62042        58.70412        -1.16406
H         51.14131        59.10762        -1.89016
O         57.01946        62.27563        -2.49408
H         56.77375        61.76101        -3.28965
O         34.10824        59.23191         2.45996
H         34.93877        59.68860         2.72099
O         58.63951        52.15785        -0.21767
H         58.28145        52.04773        -1.12228
O         49.20559        55.24471        -1.17565
H         49.89173        55.93315        -1.31368
O         47.44262        41.69972        -1.32240
H         48.18057        41.22867        -1.76367
O         52.69994        48.62326        -1.21008
H         53.52787        49.09533        -1.44401
O         60.71765        56.21370        -1.83720
H         60.20251        56.08038        -2.65874
O         34.12558        54.63838        -1.78715
H         34.71055        55.32875        -2.17984
O         50.76164        59.00679         2.48987
H         50.38804        59.89001         2.75042
O         48.81126        35.19053        -0.24035
H         48.90650        34.23491        -0.05738
O         49.16938        61.19863         2.54107
H         48.33622        60.98220         3.01412
H         29.35229        56.59310         0.25950
H         28.13708        58.76337         0.11718
H         30.31081        62.49221         0.26840
H         28.17713        61.24367         0.15599
H         31.48288        52.49483        -0.11510
H         30.61424        54.52530         0.40793
H         32.77442        62.47697         0.19180
H         34.35865        47.98101        -0.13303
H         33.41962        50.17782        -1.13478
H         35.23641        62.53338         0.49445
H         36.82956        43.80650        -0.76849
H         35.59160        45.90674        -0.46088
H         37.72179        62.53537         0.63576
H         39.37824        39.47364        -1.01565
H         38.07598        41.67060        -0.99075
H         40.18848        62.58518         0.47095
H         41.80473        35.23261        -0.76199
H         40.54634        37.36354        -0.76553
H         42.72202        62.63367         0.34459
H         45.22617        31.95359        -1.11092
H         43.05481        33.17259        -1.03576
H         45.19690        62.63081         0.49105
H         47.33838        33.10273        -0.49914
H         47.74436        35.41633         1.53565
H         47.63845        62.64017         0.71375
H         49.77688        37.33581         0.27801
H         51.00802        39.47915         0.29131
H         50.20933        62.52372         0.27240
H         52.25230        41.58710         0.73304
H         53.51585        43.77834         1.06411
H         52.44796        62.36385        -0.66196
H         54.77198        45.87721         0.98565
H         56.05929        48.01591         0.83460
H         54.80718        62.28709        -1.30630
H         57.28830        50.18658         0.88900
H         58.05832        52.86719         1.61907
H         57.58262        61.98461        -0.54303
H         59.63547        54.44037        -0.35968
H         60.56369        57.14360        -0.01536
H         59.50355        62.11281        -2.76804
H         61.75684        58.43895        -2.35178
H         61.58334        60.78710        -3.20253
