         424
 CSIRO Nanostructure Databank - Neutral Graphene Oxide Data Set
C          1.29802         2.59454        -0.97984
C          1.18590         3.48795         0.14470
C          2.50330         2.04760        -1.31407
C          2.27763         3.74663         0.91231
C          1.13623         6.67914         1.50113
C          1.13006         7.96312         0.96724
C          2.30406         5.91510         1.46836
C          2.33079         8.54228         0.51734
C          1.15117        10.65665        -0.19183
C          1.14635        11.95667        -0.58909
C          2.36701         9.90442         0.02195
C          2.38468        12.65557        -0.94797
C          1.29017        14.83043        -1.48614
C          1.33385        16.20669        -1.76811
C          2.42043        14.13906        -1.05331
C          2.51451        16.92771        -1.59477
C          2.59290        18.32624        -1.92770
C          3.70083         2.33735        -0.56614
C          3.62041         3.12204         0.72898
C          4.89551         1.73223        -0.84921
C          4.84215         4.09113         1.05021
C          3.53662         6.39376         0.94613
C          3.54804         7.79011         0.59838
C          4.75829         5.62018         0.82337
C          4.79379         8.46662         0.44274
C          3.60213        10.54142        -0.12418
C          3.68129        11.91590        -0.64597
C          4.82182         9.87205         0.20383
C          4.88381        12.70381        -0.31239
C          3.65105        14.83194        -0.82319
C          3.68453        16.26734        -1.06562
C          4.82442        14.13769        -0.41850
C          4.83376        17.01791        -0.82519
C          3.74236        19.03523        -1.74996
C          4.91657        18.42202        -1.16404
C          6.10547         2.20599        -0.21985
C          6.08321         3.49537         0.39687
C          7.31883         1.52831        -0.39711
C          7.28859         4.20265         0.49135
C          5.98008         6.31513         0.73852
C          6.01336         7.75979         0.63593
C          7.26476         5.61775         0.72483
C          7.22427         8.49896         0.73760
C          6.04243        10.60193         0.29287
C          6.02228        12.03014         0.13874
C          7.25821         9.90955         0.60593
C          7.21488        12.80728         0.63658
C          6.04723        14.87467        -0.19545
C          5.98238        16.38787        -0.08719
C          7.21074        14.22073         0.11879
C          7.29517        17.07986        -0.50601
C          6.06155        19.17273        -0.94870
C          7.25813        18.59764        -0.24045
C          8.54459         2.11415        -0.00940
C          8.54155         3.52029         0.34044
C          9.76197         1.40634        -0.09571
C          9.74263         4.21480         0.51681
C          8.47862         6.30843         0.80370
C          8.46706         7.76299         1.03509
C          9.73870         5.63045         0.68556
C          9.78643         8.51126         0.99426
C          8.52191        10.64000         0.65408
C          8.53847        12.06719         0.53382
C          9.75878         9.95934         0.71752
C          9.75090        12.75555         0.53865
C          8.50101        14.93692         0.04872
C          8.48912        16.42654         0.14578
C          9.77729        14.21366         0.27105
C          9.78750        17.14810         0.13748
C          8.59397        19.22822        -0.55268
C          9.80258        18.58318        -0.28447
C         10.99523         2.02400         0.18365
C         11.01067         3.43180         0.74151
C         12.20942         1.34794         0.07308
C         12.25702         4.17981         0.36590
C         10.96695         6.36117         0.58687
C         11.01747         7.75792         0.68156
C         12.17412         5.64262         0.03300
C         12.23236         8.48913         0.50210
C         11.00010        10.64293         0.61931
C         11.01420        12.07321         0.60047
C         12.24112         9.91809         0.56769
C         12.24299        12.78469         0.68604
C         11.00965        15.00176         0.50158
C         11.03231        16.34470         0.26022
C         12.17949        14.25266         1.09812
C         12.32086        17.03102         0.03850
C         11.03187        19.27237        -0.27485
C         12.31798        18.58533        -0.22352
C         13.45702         2.03129         0.20089
C         13.44077         3.49546         0.24753
C         14.66589         1.35523         0.10938
C         14.69724         4.21218         0.13997
C         13.47476         6.36977         0.24101
C         13.47489         7.77550         0.34853
C         14.69240         5.64440         0.16834
C         14.71325         8.49515         0.34650
C         13.47313        10.63802         0.53101
C         13.48047        12.07752         0.65023
C         14.71353         9.92967         0.44610
C         14.73667        12.76175         0.66586
C         13.50790        15.01026         0.99724
C         13.55070        16.40572         0.51791
C         14.79845        14.22301         0.85926
C         14.75722        17.08156         0.36898
C         13.57083        19.24769         0.06746
C         14.77052        18.52753         0.17422
C         15.92693         2.03884         0.11868
C         15.91692         3.50240         0.13753
C         17.11289         1.32731         0.03730
C         17.13416         4.22027         0.07641
C         15.93227         6.35646         0.15491
C         15.93475         7.78018         0.23856
C         17.15611         5.63248         0.06522
C         17.19066         8.47664         0.27238
C         15.94833        10.63556         0.41821
C         15.96102        12.07055         0.46849
C         17.19189         9.92827         0.33163
C         17.19939        12.77864         0.32512
C         16.02165        14.95096         0.48944
C         16.01224        16.36228         0.42464
C         17.22695        14.22397         0.29598
C         17.23862        17.06574         0.28025
C         16.01436        19.20381         0.20781
C         17.24515        18.50794         0.23993
C         18.41842         1.98215         0.10140
C         18.42074         3.50130         0.13748
C         19.65847         1.32400        -0.29657
C         19.60646         4.21307        -0.46974
C         18.41657         6.34557         0.10279
C         18.39214         7.75868         0.25813
C         19.64579         5.65930        -0.04872
C         19.67610         8.49431         0.54494
C         18.39938        10.63489         0.24930
C         18.43018        12.05899         0.20925
C         19.66462         9.88230        -0.07261
C         19.67864        12.73874         0.08466
C         18.43851        14.92569         0.11327
C         18.46046        16.34410         0.16962
C         19.69262        14.19365        -0.28287
C         19.70545        17.05647         0.13872
C         18.47714        19.18935         0.20227
C         19.71028        18.48712         0.19392
C         20.88436         2.03047        -0.32123
C         20.90095         3.46974        -0.28102
C         22.12194         1.34120        -0.39690
C         22.11252         4.17830        -0.28955
C         20.89337         6.34123        -0.04552
C         20.92780         7.74959         0.14596
C         22.12315         5.62686        -0.23335
C         22.12730         8.45894         0.06988
C         20.93096        10.62467         0.26214
C         20.92438        12.05394         0.22785
C         22.13963         9.89847         0.24012
C         22.14781        12.76524         0.35870
C         20.95418        14.91778         0.11105
C         20.94520        16.33235         0.16930
C         22.16728        14.19803         0.29924
C         22.17307        17.04820         0.29640
C         20.94326        19.18088         0.25041
C         22.17298        18.48777         0.31455
C         23.35329         2.03372        -0.38228
C         23.35338         3.47196        -0.32484
C         24.58998         1.34456        -0.41501
C         24.58368         4.18786        -0.33164
C         23.34833         6.32881        -0.28614
C         23.36584         7.77163        -0.17771
C         24.58584         5.61766        -0.34917
C         24.56037         8.49240        -0.27713
C         23.38277        10.57747         0.28869
C         23.38870        12.00211         0.76128
C         24.58564         9.89872        -0.01168
C         24.65794        12.73499         0.41657
C         23.38613        14.91923         0.43690
C         23.39914        16.33223         0.39888
C         24.66627        14.19560         0.78308
C         24.64524        17.05832         0.44591
C         23.40402        19.17948         0.39130
C         24.63803        18.48887         0.42616
C         25.82068         2.03812        -0.37778
C         25.81906         3.48093        -0.34279
C         27.05524         1.35353        -0.37932
C         27.04205         4.19952        -0.32155
C         25.82574         6.32357        -0.43498
C         25.80896         7.80117        -0.76347
C         27.02607         5.62940        -0.41192
C         27.08303         8.52843        -0.39247
C         25.82034        10.62939        -0.09033
C         25.79745        12.06612         0.04813
C         27.06125         9.93894        -0.24049
C         27.03121        12.82063        -0.38864
C         25.90406        14.93316         0.34867
C         25.88517        16.36127         0.39561
C         27.07914        14.25438         0.07383
C         27.10708        17.07763         0.28425
C         25.87543        19.19192         0.41597
C         27.09339        18.51082         0.33789
C         28.28138         2.05294        -0.27586
C         28.28014         3.48835        -0.23152
C         29.51450         1.36535        -0.18301
C         29.50349         4.18635        -0.00252
C         28.34631         6.33309        -0.61755
C         28.30389         7.83013        -0.38972
C         29.44264         5.67935         0.24534
C         29.53188         8.51535        -0.30349
C         28.31146        10.66629        -0.19454
C         28.32336        12.07584        -0.16896
C         29.55118         9.95132        -0.26316
C         29.54270        12.79261        -0.18424
C         28.32374        14.95627        -0.00062
C         28.33763        16.37369         0.13846
C         29.55264        14.23848        -0.14515
C         29.57817        17.08805         0.10534
C         28.35226        19.19890         0.32943
C         29.54674        18.52320         0.24694
C         30.72138         2.06116         0.02573
C         30.69311         3.49510         0.15304
C         31.95567         1.37081         0.11267
C         31.92900         4.22434         0.62124
C         30.77190         6.36922         0.02826
C         30.78458         7.77618        -0.22226
C         31.96345         5.66970         0.17668
C         32.00769         8.45535        -0.29802
C         30.77341        10.66165        -0.34826
C         30.78164        12.07561        -0.28358
C         32.01727         9.88919        -0.75615
C         32.00560        12.82865        -0.39520
C         30.77995        14.95401        -0.20378
C         30.79468        16.38431        -0.07609
C         32.00271        14.21662        -0.39141
C         32.05395        17.11455        -0.08710
C         30.82107        19.31951         0.37073
C         32.07944        18.53879         0.08611
C         33.19321         2.05767         0.20403
C         33.21662         3.49193         0.33142
C         34.40634         1.34866         0.10012
C         34.42520         4.18434         0.30014
C         33.21168         6.35385         0.11703
C         33.23357         7.76447        -0.09035
C         34.44729         5.64608         0.26589
C         34.47558         8.47450        -0.02324
C         33.29097        10.60636        -0.39733
C         33.28906        12.08668        -0.70326
C         34.44748         9.92178        -0.13275
C         34.53387        12.78611        -0.23235
C         33.30255        14.96625        -0.63155
C         33.27207        16.43223        -0.24352
C         34.42436        14.25310         0.11896
C         34.50398        17.13593        -0.17032
C         33.26965        19.23916         0.02342
C         34.52032        18.56704        -0.10990
C         35.64670         2.02341         0.10464
C         35.66484         3.45582         0.20429
C         36.87287         1.32181         0.00307
C         36.90007         4.13378         0.24060
C         35.65767         6.35378         0.29545
C         35.69965         7.78310         0.18274
C         36.90946         5.59030         0.48490
C         36.97310         8.49175         0.17341
C         35.70298        10.65175         0.27693
C         35.69763        12.09927        -0.12510
C         37.00204         9.91539         0.03944
C         36.98585        12.78713        -0.46953
C         35.75321        14.98630         0.07400
C         35.75999        16.44398        -0.17829
C         37.02557        14.23370        -0.06355
C         36.96330        17.12115        -0.30241
C         35.75025        19.25467        -0.14292
C         36.97958        18.56185        -0.26953
C         38.09485         2.00219        -0.02363
C         38.11941         3.43169         0.10199
C         39.33427         1.28824        -0.18588
C         39.37853         4.13008         0.00472
C         38.22530         6.31597         0.38693
C         38.21645         7.77773         0.16885
C         39.44061         5.54831         0.05529
C         39.44706         8.42842         0.04204
C         38.21066        10.62297        -0.02526
C         38.25923        12.05066        -0.15500
C         39.50795         9.91680         0.29142
C         39.44647        12.76806        -0.22363
C         38.27961        14.94567        -0.35589
C         38.24552        16.40565        -0.67942
C         39.47221        14.23013        -0.29746
C         39.50049        17.11253        -0.25612
C         38.22457        19.23592        -0.24898
C         39.46484        18.53057        -0.15762
C         40.52158         1.95461        -0.28659
C         40.57199         3.38920        -0.22639
C         41.78852         4.08437        -0.41051
C         40.65239         6.23067        -0.17221
C         40.67326         7.69799        -0.14742
C         41.82522         5.46825        -0.40111
C         41.84024         8.41023        -0.40374
C         40.73455        10.58401        -0.27309
C         40.74962        12.06952        -0.53532
C         41.84034         9.83206        -0.53875
C         41.91921        12.80793         0.05971
C         40.72227        14.93807        -0.17252
C         40.71239        16.39075        -0.10348
C         41.89832        14.17039         0.12737
C         41.89892        17.13371         0.13196
C         40.67848        19.22933         0.07669
C         41.87278        18.52724         0.21132
O         36.53622        14.59921         1.28319
O          3.17628        12.03326        -2.02300
O          8.95969        16.98703         1.39970
O         18.64123         2.79649         1.37255
O         12.42781        17.56144        -1.29731
O          9.14978         8.16525         2.27587
O          2.19719         4.61858         2.00661
O          9.27850        14.48326        -1.13086
O         37.65202         5.95981         1.70752
O         14.31549        14.72906         2.18334
O         33.63287        14.90800        -2.04415
H         32.86433        15.23882        -2.55321
O         40.89371        12.20551        -2.00029
H         41.03546        13.15820        -2.18906
O         33.99217        14.23257         1.50776
H         34.81178        14.16158         2.05208
O         11.08354         3.26725         2.20686
H         10.28461         2.77048         2.48460
O         26.89778        12.91557        -1.85625
H         27.73012        13.30208        -2.20252
O         11.95050         5.66508        -1.44216
H         12.75548         5.29174        -1.86198
O         31.79453         4.28218         2.09509
H         32.64630         4.61420         2.45230
O         19.69090        14.19990        -1.78173
H         19.72584        15.14038        -2.06110
O          3.71017         2.07548         1.76398
H          2.94346         1.47636         1.64346
O          5.07706         4.01308         2.47715
H          4.80222         3.11418         2.77179
O         36.93383        12.81399        -1.94741
H         37.76858        13.22179        -2.26722
O          5.74019        16.58964         1.33363
H          5.90022        17.55157         1.52398
O          7.01670        12.95416         2.09497
H          6.25046        13.55222         2.23202
O          7.45843        16.91551        -1.93193
H          7.77483        16.00367        -2.11174
O         24.72219        14.23760         2.25634
H         24.07794        13.55455         2.57866
O          7.04931        18.85119         1.19414
H          7.81935        18.42875         1.65638
O         25.75705         7.86092        -2.23459
H         26.54438         7.37569        -2.56770
O         23.33286        11.91878         2.26319
H         23.96201        11.21705         2.53810
O         19.66667         9.70644        -1.52425
H         19.68889        10.59765        -1.93370
O         28.69200         6.13379        -2.01967
H         29.53964         6.59948        -2.18823
O         33.39497        12.15749        -2.18733
H         34.34143        12.29339        -2.41812
O         11.83493        14.20886         2.51866
H         12.68993        14.15132         3.00843
O         19.33868         4.21367        -1.91910
H         20.04158         4.74493        -2.35021
O         35.63773        10.71012         1.75538
H         34.81532        11.18825         1.99712
O         30.76241        20.49924        -0.44845
H         30.70022        20.21732        -1.38382
O         39.64696        10.04246         1.76433
H         38.85659         9.61971         2.16605
O         31.96732         9.82384        -2.22764
H         32.35619        10.67295        -2.55852
O         19.73463         8.67816         1.99172
H         19.71290         7.79224         2.41026
O         29.08208         5.86904         1.63822
H         29.76693         5.40831         2.17381
O         38.24754        16.46050        -2.17684
H         38.29544        17.41025        -2.42160
H          0.40083         2.37242        -1.57288
H          0.22257         3.96281         0.37230
H          2.59110         1.38573        -2.18765
H          0.22317         6.24351         1.92647
H          0.19101         8.53003         0.95935
H          0.18692        10.18275         0.03639
H          0.19826        12.51394        -0.59907
H          0.35441        14.28344        -1.66797
H          0.43671        16.71159        -2.15389
H          1.69942        18.81267        -2.34641
H          4.97199         0.97913        -1.64793
H          3.78860        20.09975        -2.02262
H          7.31620         0.52159        -0.84015
H          6.06645        20.23884        -1.22385
H          9.74878         0.35656        -0.42670
H          8.61702        20.29808        -0.81133
H         12.21489         0.27789        -0.18616
H         11.03065        20.36976        -0.35055
H         14.66604         0.25726         0.03373
H         13.58051        20.34062         0.18813
H         17.07943         0.23552        -0.09829
H         16.02455        20.30120         0.13071
H         19.65574         0.23771        -0.47177
H         18.48614        20.28930         0.20158
H         22.12333         0.24172        -0.43175
H         20.94131        20.28039         0.27919
H         24.59233         0.24513        -0.45345
H         23.40298        20.27973         0.38855
H         27.06395         0.25407        -0.41646
H         25.86693        20.29170         0.43968
H         29.52699         0.26692        -0.24152
H         28.36093        20.29568         0.41403
H         31.96227         0.27488         0.01756
H         30.88680        19.69011         1.43267
H         34.38559         0.25367        -0.00210
H         33.25159        20.33568         0.10773
H         36.85923         0.22450        -0.07379
H         35.75700        20.35187        -0.06153
H         39.30297         0.19081        -0.25041
H         38.23645        20.33369        -0.17848
H         41.46066         1.40131        -0.43372
H         42.71246         3.51278        -0.58015
H         42.78843         5.97057        -0.56085
H         42.78418         7.88256        -0.59320
H         42.75593        10.31693        -0.90847
H         42.82961        12.25394         0.33056
H         42.80319        14.69349         0.46904
H         42.86233        16.61855         0.24367
H         40.66524        20.32548         0.15947
H         42.80925        19.07452         0.38947
