         621
 CSIRO Nanostructure Databank - Neutral Graphene Oxide Data Set
C          5.95708        31.32268         1.08634
C          5.95742        32.62165         0.70168
C          8.32071        27.23642         2.19755
C          8.29489        28.70078         2.67544
C          7.14212        29.37493         1.97913
C          8.43852        31.36862         1.42285
C          7.17727        30.65000         1.50271
C          8.43555        32.67090         0.93414
C          7.19885        33.36681         0.58651
C          8.48021        35.39213        -0.18806
C          7.20714        34.66463         0.14554
C          8.43209        36.90009        -0.05071
C         10.86346        23.19581         2.58730
C         10.70836        24.60169         3.10207
C         10.29456        25.51625         1.91863
C         10.86887        27.56321         3.72425
C          9.36332        26.44775         2.03924
C         10.86316        28.81446         2.90228
C          9.63893        29.41494         2.48717
C         10.90927        31.33912         1.65694
C          9.66288        30.69239         1.86253
C         10.93006        32.65480         0.98592
C          9.67020        33.41353         0.81501
C         10.92051        35.54056         0.50478
C          9.68182        34.73334         0.44406
C         10.72940        36.98632         0.83999
C          9.54110        37.66787         0.26578
C         10.79920        39.82485         0.38943
C          9.59567        39.08621         0.19353
C         10.84228        41.20409         0.06916
C         13.29952        19.30213         0.87004
C         13.25862        20.55032         1.51150
C         12.06347        21.20359         1.84616
C         13.32199        23.07345         2.90889
C         12.05355        22.51057         2.43717
C         13.29747        24.40450         3.58270
C         12.01024        25.17989         3.69078
C         13.40542        27.36741         3.42994
C         12.11050        26.69584         3.75482
C         13.40126        28.75331         2.88426
C         12.12180        29.42583         2.61027
C         13.39106        31.42668         1.80534
C         12.13163        30.71743         2.00223
C         13.44394        32.74272         1.41481
C         12.24306        33.39781         0.87885
C         13.34849        35.63977         1.41556
C         12.24413        34.89094         0.75496
C         13.20517        37.06775         1.58990
C         11.94620        37.77789         1.20448
C         13.26456        39.85198         0.64360
C         12.01617        39.19193         0.80418
C         13.28872        41.23197         0.23645
C         12.04068        41.94727         0.03586
C         12.94402        44.27317        -0.28449
C         11.94042        43.30775        -0.42744
C         13.18536        45.45697        -0.99796
C         15.64687        15.30742        -0.82665
C         15.65908        16.52878        -0.17107
C         14.49651        17.31529         0.00841
C         15.75401        19.14542         1.06776
C         14.51964        18.58798         0.64826
C         15.83591        20.53545         1.50500
C         14.53057        21.26412         1.76381
C         15.79593        22.91601         3.24879
C         14.50857        22.42201         2.68219
C         15.82562        24.39818         3.54298
C         14.56509        25.16928         3.44474
C         15.88819        27.15424         2.91230
C         14.59944        26.51094         3.24375
C         15.90868        28.59993         2.58348
C         14.60547        29.33314         2.56728
C         15.97739        31.37041         1.84254
C         14.64961        30.66827         1.95728
C         16.01124        32.85494         1.66571
C         14.69185        33.54476         1.36546
C         15.79510        35.70719         1.85124
C         14.59447        34.99980         1.60975
C         15.81857        37.17201         1.78715
C         14.53582        37.91328         1.59726
C         15.75513        39.58705         0.20928
C         14.51145        39.16562         0.88867
C         15.73728        40.98463        -0.44605
C         14.55281        41.80856        -0.12176
C         15.74279        43.86313        -0.91412
C         14.74071        43.18351        -0.11212
C         15.73605        45.33627        -1.05329
C         14.49133        46.05753        -1.13554
C         15.73346        48.02080        -1.96417
C         14.53397        47.39954        -1.57138
C         15.74134        49.40327        -2.35492
C         17.90868        11.85531        -3.44157
C         17.96085        12.93570        -2.51555
C         16.80929        13.40543        -1.89363
C         18.14455        15.21275        -0.76988
C         16.85575        14.41476        -0.78815
C         18.19858        16.41400        -0.06365
C         16.93197        16.97216         0.45968
C         18.28181        19.02860         1.24814
C         16.97983        18.34790         1.09637
C         18.27822        20.31489         1.87492
C         17.09642        21.00295         2.10852
C         18.37193        22.95963         3.03846
C         17.10697        22.10294         3.14164
C         18.35529        24.32754         3.59522
C         17.11037        25.12337         3.52427
C         18.37058        27.25847         3.39177
C         17.14150        26.47586         3.30709
C         18.35022        28.71455         3.19144
C         17.20314        29.32516         2.73206
C         18.45412        31.55351         2.63076
C         17.25301        30.72469         2.29092
C         18.28031        33.02206         2.92861
C         17.10966        33.65075         2.21431
C         18.30386        35.75408         1.96758
C         17.04082        35.03620         2.08784
C         18.33346        36.99607         1.37123
C         17.12828        37.82697         1.37612
C         18.28236        39.62432         0.10466
C         17.07998        39.04365         0.55487
C         18.23514        40.95657        -0.48346
C         17.04867        41.64416        -0.64824
C         18.25554        43.81997        -1.27658
C         17.01701        43.03242        -1.16913
C         18.21178        45.18499        -1.40719
C         16.95740        45.94942        -1.42796
C         18.14916        47.86369        -2.53880
C         16.95066        47.28899        -1.89298
C         18.10874        49.27447        -3.08447
C         16.89029        50.05988        -2.77626
C         18.14999        52.19142        -2.90879
C         16.94955        51.47976        -2.79103
C         18.15136        53.60155        -2.72633
C         20.06386         8.58230        -6.53345
C         20.17002         9.72641        -5.53430
C         19.02199        10.21595        -4.91947
C         20.35216        11.89227        -3.69693
C         19.07639        11.31668        -4.01612
C         20.42423        13.00164        -2.79839
C         19.25269        13.52440        -2.20004
C         20.58933        15.28100        -1.08181
C         19.32685        14.66944        -1.35722
C         20.64140        16.49154        -0.28178
C         19.43520        17.09921         0.16611
C         20.74416        19.01594         1.04126
C         19.48401        18.37139         0.85564
C         20.82997        20.29389         1.79401
C         19.56428        20.93304         2.29299
C         20.79938        23.15382         2.52756
C         19.56176        22.38330         2.65073
C         20.79510        24.49542         2.87211
C         19.64262        25.12298         3.54022
C         20.81993        27.32945         3.95307
C         19.55779        26.60530         3.58202
C         20.79576        28.82523         3.71591
C         19.59164        29.48400         3.38156
C         20.80866        31.65755         3.45689
C         19.62801        30.89106         3.23731
C         20.82052        33.10410         3.16596
C         19.58330        33.76584         2.74939
C         20.76257        35.88456         2.24008
C         19.54235        35.05900         2.27995
C         20.80874        37.04251         1.35733
C         19.56262        37.48721         0.66171
C         20.79880        39.61299         0.13536
C         19.55373        38.97753         0.35141
C         20.80788        40.90186        -0.60409
C         19.50571        41.58126        -0.94130
C         20.80629        43.81122        -1.22854
C         19.52753        43.05417        -1.31715
C         20.78336        45.21306        -1.47796
C         19.49179        45.92413        -1.51741
C         20.72835        47.85719        -2.69224
C         19.46585        47.29956        -2.12110
C         20.68529        49.23588        -3.29142
C         19.37232        50.02177        -3.54459
C         20.58127        52.17562        -3.19218
C         19.41001        51.47819        -3.11981
C         20.56094        53.65399        -3.21835
C         19.32088        54.36797        -2.83281
C         20.53315        56.53733        -2.87781
C         19.33835        55.77316        -2.76597
C         20.53303        57.92321        -2.89302
C         22.51419         6.09352        -8.01569
C         21.34188         6.58189        -7.50860
C         22.58022         8.60608        -6.74951
C         21.35073         7.73352        -6.53832
C         22.62795         9.90427        -5.99337
C         21.42370        10.32757        -5.24899
C         22.80656        12.00559        -4.04136
C         21.53015        11.38365        -4.31240
C         22.86972        13.08588        -3.16727
C         21.69403        13.60088        -2.51795
C         23.08148        15.17770        -1.16484
C         21.75880        14.70492        -1.63058
C         23.13103        16.38094        -0.27424
C         21.88453        17.10684         0.02546
C         23.21624        19.10791         0.75945
C         21.94138        18.39584         0.61771
C         23.20082        20.50355         1.18632
C         22.04984        21.12780         1.63060
C         23.16976        23.32028         1.79058
C         22.02689        22.54523         1.96572
C         23.19701        24.76640         2.06237
C         21.92628        25.39133         2.55165
C         23.29445        27.33275         3.55070
C         21.97715        26.75380         3.15344
C         23.27026        28.77313         3.98614
C         21.99920        29.54640         3.82085
C         23.26623        31.72892         4.04387
C         22.01513        30.96816         3.75658
C         23.26366        33.27519         3.74017
C         22.01169        33.82406         3.16829
C         23.31061        35.91084         2.34284
C         22.03994        35.24351         2.73269
C         23.28982        37.10374         1.64933
C         22.10468        37.55919         0.83023
C         23.28440        39.78029         0.42881
C         22.05280        39.04237         0.50735
C         23.30387        41.13968        -0.01475
C         22.08365        41.72788        -0.61408
C         23.18702        44.01012        -0.64982
C         21.99080        43.17873        -0.85344
C         23.24035        45.34226        -1.27062
C         21.99376        45.96031        -1.64755
C         23.22095        48.00832        -2.32295
C         21.99668        47.27560        -2.17511
C         23.19896        49.33433        -2.78263
C         21.97332        50.00421        -3.27132
C         23.06993        52.31068        -2.67858
C         21.91277        51.50875        -3.26844
C         23.16805        53.67427        -3.45714
C         21.83079        54.41885        -3.36040
C         23.02002        56.59886        -3.46738
C         21.86983        55.82569        -2.79592
C         23.00716        58.04804        -3.04786
C         21.75804        58.69347        -2.88659
C         22.93213        60.81347        -2.60184
C         21.73800        60.09188        -2.67319
C         23.77719         6.70973        -7.76927
C         25.06322         8.64404        -6.91169
C         23.86079         7.95492        -7.12515
C         25.13216         9.86252        -6.16540
C         23.94399        10.44551        -5.62325
C         25.28515        12.07625        -4.42605
C         24.02249        11.50768        -4.69932
C         25.41395        13.11901        -3.35619
C         24.11019        13.95391        -3.18209
C         25.58602        15.50065        -1.81002
C         24.30793        14.74661        -1.90113
C         25.53833        16.78702        -1.11430
C         24.41982        17.15269        -0.19608
C         25.71456        19.15393         0.58996
C         24.39638        18.53841         0.31288
C         25.74516        20.58438         1.07020
C         24.44047        21.29080         1.00088
C         25.74309        23.42442         1.61614
C         24.43985        22.77040         1.28135
C         25.77976        24.67944         2.15459
C         24.52830        25.45240         2.28051
C         25.84230        27.46223         3.13869
C         24.57472        26.68399         3.13621
C         25.84029        28.81878         3.54173
C         24.57245        29.49163         3.94193
C         25.73899        31.50095         4.42312
C         24.55351        30.97592         4.01088
C         25.74903        33.62944         4.01331
C         24.52249        34.05600         3.50353
C         25.76550        36.02115         2.71012
C         24.54534        35.32457         2.82917
C         25.71617        37.44887         2.34474
C         24.45647        37.99020         1.71644
C         25.75200        39.90724         0.74868
C         24.52190        39.23157         0.90936
C         25.75700        41.22069         0.17648
C         24.50982        41.85033        -0.07632
C         25.74787        43.96244        -0.72757
C         24.50301        43.30349        -0.32570
C         25.70860        45.31656        -1.11542
C         24.46382        46.01293        -1.38131
C         25.66045        48.09980        -1.91151
C         24.47442        47.38317        -1.89140
C         25.75848        49.44622        -2.48907
C         24.43320        50.13029        -2.91124
C         25.58612        52.33929        -2.46658
C         24.38249        51.58161        -2.77465
C         25.56512        53.86426        -2.54623
C         24.33598        54.53524        -3.01385
C         25.54676        56.67234        -2.95975
C         24.32197        55.89289        -3.13699
C         25.47508        58.07010        -2.95480
C         24.21981        58.76837        -2.92934
C         24.16268        60.16889        -2.71041
C         26.38496        10.45268        -5.86642
C         27.75373        12.15854        -4.66909
C         26.47571        11.57123        -5.01813
C         27.85838        13.33234        -3.94010
C         26.58785        14.08532        -3.62049
C         28.01833        15.70945        -2.23649
C         26.72531        15.11126        -2.50269
C         28.06342        16.80754        -1.35061
C         26.85264        17.53149        -0.96376
C         28.16293        19.31105         0.14484
C         26.95177        18.64025        -0.00392
C         28.20411        20.67087         0.66364
C         26.99906        21.35492         0.97628
C         28.21676        23.44779         1.32015
C         26.99270        22.72126         1.32314
C         28.26231        24.81589         1.81417
C         27.07930        25.29978         2.63203
C         28.25107        27.55216         2.77895
C         27.04112        26.81473         2.78730
C         28.26347        28.91379         3.20141
C         27.06317        29.51815         3.64220
C         28.27718        31.80372         3.94323
C         27.06426        30.89880         4.19640
C         28.23574        33.30237         3.66577
C         27.02037        34.06762         3.53371
C         28.26742        36.03467         2.75626
C         27.02296        35.38181         2.97379
C         28.28936        37.47485         2.41352
C         26.99365        38.20078         2.14034
C         28.24484        39.94538         0.90498
C         27.01872        39.36889         1.23977
C         28.24792        41.12455        -0.01156
C         26.98255        41.90034        -0.14348
C         28.21205        43.87549        -1.11325
C         26.96642        43.20407        -0.66732
C         28.16841        45.34959        -1.25426
C         26.96656        46.01520        -1.28287
C         28.16947        48.27262        -1.48078
C         26.90436        47.49565        -1.38862
C         28.18561        49.67178        -1.96360
C         26.95457        50.29286        -2.23871
C         28.09644        52.46369        -2.36069
C         26.90251        51.68604        -2.40635
C         28.05154        53.88507        -2.52267
C         26.85156        54.58923        -2.66975
C         26.78599        55.98852        -2.83909
C         29.08112        14.01880        -3.72457
C         30.45572        15.89214        -3.03085
C         29.20243        15.18313        -2.94305
C         30.93411        16.75723        -2.03974
C         29.24939        17.34429        -0.77299
C         30.71551        19.26810        -0.18280
C         29.36638        18.64554        -0.30547
C         30.70357        20.71564         0.30872
C         29.41906        21.39662         0.63409
C         30.60255        23.58902         0.64489
C         29.39860        22.78027         0.89930
C         30.59383        25.03967         1.04195
C         29.41521        25.57865         1.76287
C         30.67613        27.63781         2.39506
C         29.48151        26.92257         2.32932
C         30.73883        28.99675         2.87863
C         29.49802        29.68691         3.21508
C         30.75986        31.76657         3.67459
C         29.48708        31.05597         3.46810
C         30.73578        33.26481         3.62421
C         29.44296        33.95702         3.35240
C         30.73304        36.04600         2.70656
C         29.47233        35.33686         2.93950
C         30.75681        37.41194         2.25997
C         29.52577        38.09477         1.92821
C         30.82517        39.98281         1.01532
C         29.49862        39.34356         1.31741
C         30.85771        41.20937         0.13917
C         29.56448        41.76003        -0.41763
C         30.78259        44.03622        -0.77989
C         29.55733        43.18786        -0.91885
C         30.72607        45.38801        -1.11084
C         29.45797        46.04901        -1.47785
C         30.66071        48.37299        -1.13774
C         29.46705        47.54316        -1.56967
C         30.73645        49.70302        -1.93283
C         29.39190        50.40972        -2.01558
C         29.33785        51.78589        -2.22808
C         31.83698        17.83686        -2.06682
C         33.02389        19.66102        -1.02705
C         31.86883        18.86967        -1.07596
C         33.11680        20.91915        -0.36675
C         31.89851        21.55838         0.08713
C         33.13189        23.62201         0.56594
C         31.88952        22.90160         0.39504
C         33.14802        24.90258         1.09253
C         31.91916        25.72023         1.20502
C         33.21817        27.60788         2.38852
C         31.94168        27.04351         1.89631
C         33.22615        28.93066         2.75620
C         31.98323        29.64209         2.95787
C         33.30515        31.81067         3.14049
C         32.06942        31.03372         3.44195
C         33.28107        33.20864         3.06846
C         32.02884        33.96836         3.32228
C         33.18296        36.05327         2.71690
C         31.96017        35.36403         2.84650
C         33.09731        37.46765         2.75103
C         31.96500        38.15555         2.30254
C         33.28700        40.38735         1.61964
C         31.94700        39.67547         2.03860
C         33.09169        41.70235         0.98895
C         32.02517        42.13753         0.22437
C         33.24378        44.17298        -0.70767
C         32.03016        43.44688        -0.38149
C         33.17113        45.49331        -1.12904
C         31.92998        46.19224        -1.16851
C         31.92082        47.57867        -1.25211
C         34.32604        21.61711        -0.27265
C         35.60034        23.56991         0.50993
C         34.38332        22.92162         0.29012
C         35.67347        24.82228         1.19733
C         34.40151        25.41609         1.68648
C         35.76073        27.38761         2.69849
C         34.42487        26.75079         2.41310
C         35.79482        28.86101         3.03645
C         34.50771        29.62348         3.08619
C         35.70525        31.77672         2.58951
C         34.52197        31.10474         2.93398
C         35.66239        33.20166         2.38921
C         34.46328        33.91663         2.68838
C         35.54348        35.98019         1.91021
C         34.43973        35.33948         2.52066
C         35.40040        37.32257         1.36527
C         34.86377        38.41213         1.96883
C         35.91567        40.38134         0.70655
C         34.76228        39.81901         1.52306
C         35.96035        41.64983         0.12691
C         34.91879        42.62049         0.16690
C         34.54679        43.52510        -0.78634
C         36.87308        25.46902         1.38367
C         38.17498        27.56692         1.87929
C         36.99852        26.72080         2.14552
C         38.21735        28.89344         2.17247
C         37.13251        29.62322         2.95133
C         38.08479        31.71434         1.99649
C         36.96325        31.05595         2.43029
C         38.05539        33.14896         1.54521
C         36.80870        33.90823         1.92267
C         38.06257        35.98157         1.33759
C         36.77720        35.28644         1.66332
C         38.21619        37.38649         1.00773
C         37.20274        38.20920         0.54074
C         37.12555        39.61878         0.57352
C         39.39662        29.65904         1.83910
C         40.54965        31.81604         1.51904
C         39.35807        31.02883         1.81177
C         40.54814        33.16053         1.60997
C         39.29875        33.89071         2.04001
C         39.24402        35.31237         1.56271
O         12.55392        24.49683         4.84341
O         25.37428        49.56033        -3.89377
O         28.89443        40.84061        -1.31130
O         34.23772        25.50533         3.15733
O         30.32999        24.65996        -0.34670
O         15.94392        27.58916         1.49284
O         31.50621        33.87484         4.70412
O         16.01639        43.20311        -2.20552
O         31.23203        39.88302        -0.38262
O         17.91018        48.11031        -3.95703
O         12.93201        27.24363         4.83184
O         36.61165        26.60453         3.57365
O         20.73003        48.04609        -4.14822
O         24.06063        16.19014         0.84500
O         22.36664         9.85666        -7.46864
O         21.61411        26.60954         1.75713
O         21.03465        54.21847        -4.54427
O         23.73720        44.00708         0.72002
O         23.89194        14.84445        -4.23872
O         25.37721        53.22124        -1.24008
O         28.94378        43.26286        -2.24070
O         27.67079        38.36201         3.42568
O         23.82633        25.57348         1.00426
O         10.00025        27.29793         4.56042
O         13.72335        37.70772         2.78542
O         29.58999        46.77205        -2.78754
O         34.08948        42.60043         1.31953
O         15.68302        23.40374         4.62370
O         34.28204        40.57623         2.67104
O         15.53254        39.79715        -1.23853
O         19.19603        24.48345         4.79231
O         25.89419        17.87424        -2.03671
O         35.13406        29.12403         4.32420
O         30.38038        16.53881        -0.76221
O         24.37539        22.25244        -0.09841
O         19.52351        47.15833        -0.67482
O         11.71137        32.67483        -0.26765
O         27.48645        48.15727        -0.17094
O         20.38849        20.13357         3.19826
O         21.27953        36.13194         3.63241
O         27.98241        31.26078         5.27545
O         11.88696        35.36781        -0.60018
O         15.43091        30.66715         0.69773
O         31.05850        19.58967         1.19830
O         24.78848        38.24779         3.14424
O         16.61710        37.90922         2.77050
O         21.68297        40.88136        -1.76772
O         34.21861        38.17783         3.20135
O         22.21316        50.80683        -4.49632
O         18.27944        31.07358         1.27132
O         36.02844        37.53887         0.12643
O         15.63371        33.23267         0.29665
O         25.77117        32.72876         5.07260
O         19.47310        42.00641        -2.34004
O         15.28429        21.53217         0.52542
O         25.81695        19.50284         2.03323
O         23.10379        32.72867         5.08226
O         31.53343        31.22238         4.79120
O         24.00983        26.45165         4.47326
O         13.93999        43.96665         0.69894
O         23.91553        14.04262        -0.67301
O         24.00361        28.98201         5.22361
O         31.99098        26.96484         0.39822
O         10.92317        37.40058         2.22511
O         16.86563        17.09455         1.90826
O         19.25976        50.11552        -4.98359
H         19.29230        49.19345        -5.32609
O         25.65835        12.37709        -2.14262
H         25.14442        12.75176        -1.39199
O         22.18369        55.67799        -1.38908
H         22.17362        56.56822        -0.97853
O         30.47009        48.73143         0.26353
H         29.50869        48.85867         0.42530
O         26.34974        14.83131        -4.83073
H         25.38065        15.10699        -4.82814
O          8.67743        35.19960        -1.64644
H          9.64118        35.26548        -1.82751
O         22.73081        52.58194        -1.30238
H         23.52398        53.00255        -0.88467
O         37.64588        29.74249         4.29717
H         36.86947        29.71755         4.90388
O         38.13759        33.14842         0.08991
H         37.33186        32.71619        -0.26139
O          7.89482        28.74860         4.06199
H          8.56163        28.24444         4.59277
O         39.24768        33.90429         3.49288
H         40.08014        34.29659         3.82788
O         31.71163        50.53346        -1.31197
H         31.59898        50.41751        -0.34161
O         27.27796        24.77418         3.98596
H         28.01946        25.26295         4.40145
O         22.78953        56.54975        -4.89511
H         23.51439        57.03510        -5.34014
O         17.23115        21.39064         4.40289
H         16.98744        22.02388         5.11773
O         23.43076        53.36721        -4.83112
H         22.57442        53.45078        -5.31781
O         19.79300         9.09290        -7.83882
H         20.56622         9.64761        -8.09993
O         19.54264        36.82104        -0.65931
H         20.48361        36.76661        -0.96498
O         17.95456        33.05425         4.35977
H         18.10499        33.96640         4.68884
O         22.30285        36.90349        -0.52178
H         22.71132        37.57103        -1.11659
O         16.81366        13.66293         0.48414
H         16.87511        14.31488         1.21581
O         31.56015        40.33459         3.25637
H         32.31341        40.27231         3.88350
O         21.44731         7.16098        -5.20025
H         22.14460         6.47209        -5.21140
O         21.03915        27.11534         5.36473
H         20.77236        26.20045         5.59745
O          9.68487        24.58748         4.09340
H          9.63982        25.47921         4.51430
H          5.01567        30.75705         1.14329
H          5.01922        33.12520         0.42704
H          7.32636        26.81327         1.96254
H          6.17547        28.85173         2.04209
H          6.25440        35.15003        -0.11654
H          7.53069        37.40083        -0.43807
H          9.93179        22.70119         2.27413
H         10.84045        25.39647         0.96605
H          8.70550        39.63162        -0.15475
H          9.90466        41.70735        -0.20939
H         12.35330        18.81524         0.59187
H         11.10201        20.72788         1.60292
H         11.02997        43.58133        -0.98088
H         12.35585        45.92743        -1.54604
H         14.71333        14.93479        -1.27436
H         13.53735        16.93480        -0.37167
H         13.59205        47.96048        -1.65639
H         14.82313        49.98847        -2.19563
H         16.93186        11.41332        -3.68997
H         15.83766        12.94959        -2.13856
H         16.02445        52.03760        -2.58076
H         17.19535        54.10291        -2.51208
H         19.20243         7.92772        -6.24704
H         18.04690         9.75843        -5.14399
H         18.38289        56.30848        -2.65013
H         19.57655        58.46723        -2.86106
H         22.49563         5.18935        -8.64193
H         20.39163         6.06507        -7.70625
H         22.90031        61.89963        -2.43787
H         20.77419        60.60744        -2.55688
H         24.69311         6.22574        -8.13686
H         26.00404         8.19331        -7.26253
H         26.40286        58.65464        -2.86436
H         25.09760        60.73935        -2.61721
H         27.29987        10.01108        -6.28817
H         28.66750        11.64581        -5.00956
H         29.00190        54.43765        -2.55357
H         27.71619        56.57522        -2.80505
H         29.99027        13.62616        -4.20817
H         31.04501        15.75608        -3.95149
H         31.08104        49.48874        -2.97931
H         30.27497        52.35999        -2.25198
H         32.55541        17.91496        -2.89789
H         33.91142        19.31383        -1.57823
H         34.09712        46.03962        -1.35504
H         32.87729        48.12056        -1.29474
H         35.26013        21.13077        -0.59004
H         36.53841        23.08054         0.20897
H         36.81669        41.86534        -0.52995
H         35.19623        43.75326        -1.64258
H         37.79137        25.03174         0.96293
H         39.03131        27.10111         1.36660
H         39.20097        37.83382         1.21154
H         38.06517        40.18917         0.50671
H         40.31912        29.12167         1.57223
H         41.46979        31.27229         1.25556
H         41.46623        33.73838         1.42087
H         40.19404        35.85932         1.44804
