         279
 CSIRO Nanostructure Databank - Neutral Graphene Oxide Data Set
C        -11.15007         0.57668        -0.52205
C         -9.84081         1.33574        -0.62901
C         -8.55518         0.60327        -0.46028
C         -7.33000         1.36576        -0.08100
C         -6.14468         0.68700         0.02965
C         -4.85334         1.46005        -0.12443
C         -3.56216         0.64846         0.10921
C         -2.27087         1.38243         0.22042
C         -1.07643         0.73219         0.89060
C          0.24449         1.40914         0.41378
C          1.30264         0.64996        -0.33591
C          2.50117         1.43469        -0.95069
C          3.83008         0.72708        -0.56250
C          5.07907         1.42592        -1.08589
C          6.26125         0.73951        -1.10928
C          7.53933         1.49530        -0.98661
C          8.83695         0.83857        -1.40252
C         10.05298         1.60781        -0.91979
C         11.25961         0.89352        -0.60534
C         -9.92554         2.83389        -0.37524
C         -8.59094         3.52747        -0.17317
C         -7.37634         2.81488         0.02703
C         -6.18541         3.54599         0.35110
C         -4.92024         2.76158         0.69689
C         -3.63826         3.58089         0.53063
C         -2.31749         2.89536         0.33330
C         -1.02283         3.62340         0.62849
C          0.26058         2.90424         0.35703
C          1.40896         3.72455        -0.19025
C          2.60018         2.93966        -0.63442
C          3.72998         3.63029        -1.33309
C          5.02844         2.88574        -1.41035
C          6.30640         3.73582        -1.45716
C          7.51720         2.97511        -0.95995
C          8.79609         3.72855        -0.94629
C         10.01108         3.00007        -0.86562
C         -8.58821         4.91525        -0.14634
C         -7.41379         5.66691         0.17150
C         -6.20565         4.93275         0.46224
C         -5.07017         5.63764         1.17622
C         -3.66968         5.01944         0.96655
C         -2.39835         5.78303         0.71423
C         -1.04741         5.11517         0.52907
C          0.06774         5.84451        -0.14995
C          1.20023         5.16433        -0.54894
C          2.45273         5.89746        -0.92763
C          3.79491         5.16520        -1.25833
C          4.99019         5.65308        -0.44146
C          6.20755         5.04946        -0.68040
C          7.45397         5.70541        -0.37687
C          8.68903         5.10331        -0.65227
C         -7.46121         7.06833         0.19434
C         -6.28890         7.88567         0.51751
C         -5.05826         7.16683         1.00504
C         -3.81418         7.86370         0.53017
C         -2.53700         7.17209         0.23273
C         -1.32534         8.05928        -0.02368
C         -0.06760         7.31559        -0.53957
C          1.22834         8.16800        -0.10687
C          2.49955         7.29310        -0.32949
C          3.60124         7.54992         0.69190
C          4.98001         6.83306         0.50978
C          6.13090         7.83672         0.20386
C          7.47667         7.08822         0.23918
C         -6.11277         9.22580        -0.11402
C         -4.96316         9.92796        -0.06820
C         -3.76344         9.38303         0.68458
C         -2.35034         9.86660         0.28512
C         -1.22574         9.14350         1.01305
C         -0.06848         9.58320         1.56542
C          1.20137         8.95277         1.20673
C          2.38447         9.47574         1.64074
C          3.67462         9.08872         0.94788
C          4.94238         9.45050         1.67844
C          6.10044         8.90845         1.28088
C        -11.02575        -0.90538        -0.58565
C         -9.83621        -1.60529        -0.35670
C         -8.55959        -0.87472        -0.25872
C         -7.38575        -1.53951        -0.08220
C         -6.06935        -0.78160        -0.30292
C         -4.96960        -1.46786         0.54300
C         -3.60982        -0.76393         0.62385
C         -2.33251        -1.54632         0.82300
C         -1.00836        -0.81487         0.82100
C          0.27913        -1.55387         0.61074
C          1.40054        -0.82352        -0.08161
C          2.74502        -1.53894        -0.08246
C          3.79152        -0.78290        -0.91833
C          5.11996        -1.48162        -0.76731
C          6.34689        -0.69707        -0.85067
C          7.57181        -1.31224        -0.69866
C          8.84565        -0.65653        -1.08603
C         10.13806        -1.32425        -0.70816
C         11.31523        -0.46478        -0.48523
C         -9.83453        -3.01244        -0.32572
C         -8.68908        -3.81751         0.22211
C         -7.39904        -2.99166         0.31580
C         -6.10019        -3.72291         0.47128
C         -4.84761        -2.94411         0.03131
C         -3.51688        -3.66544         0.25675
C         -2.33861        -3.02343         0.54213
C         -1.02606        -3.77596         0.52965
C          0.37455        -3.09536         0.56965
C          1.45205        -3.64972        -0.38621
C          2.63700        -2.98292        -0.53171
C          3.92324        -3.66692        -0.78482
C          5.14514        -2.85799        -0.77444
C          6.46576        -3.54084        -0.66580
C          7.57579        -2.69155        -0.05975
C          8.92497        -3.38070        -0.03372
C         10.08414        -2.70116        -0.15346
C         -8.44991        -5.15655        -0.52588
C         -7.31180        -5.97152         0.07070
C         -6.06033        -5.24937         0.56662
C         -4.86336        -5.86355        -0.14325
C         -3.58306        -5.07355        -0.25443
C         -2.31030        -5.82865        -0.45060
C         -1.06019        -5.18884         0.04923
C          0.13948        -5.84862        -0.55341
C          1.38821        -5.07760        -0.81705
C          2.72124        -5.85244        -1.05805
C          3.97053        -5.04346        -0.75737
C          5.24544        -5.87689        -0.75616
C          6.51707        -5.03914        -0.51617
C          7.61082        -5.51635         0.37052
C          8.97067        -4.88168         0.19372
C         -7.29259        -7.32330         0.06627
C         -6.03153        -8.09866         0.43941
C         -4.85489        -7.36833        -0.21852
C         -3.58543        -8.10103        -0.50297
C         -2.28467        -7.34706        -0.55221
C         -1.04400        -8.03023        -0.09482
C          0.16855        -7.32994        -0.33425
C          1.43930        -7.90011        -0.22848
C          2.66543        -7.16492        -0.16983
C          3.75014        -7.61138         0.53315
C          5.09907        -7.03585         0.27957
C          6.17909        -7.30743         1.30203
C          7.40593        -6.47581         1.29549
C         -5.99885        -9.55789         0.04405
C         -4.83999       -10.22377        -0.07877
C         -3.46985        -9.57693        -0.15107
C         -2.59420        -9.64202         1.11759
C         -1.17806        -9.17833         0.77380
C         -0.13598        -9.72178         1.50632
C          1.25573        -9.45881         1.21126
C          2.30359        -9.18753         2.04248
C          3.67840        -8.84891         1.48621
C          4.65016        -8.70365         2.63524
C          5.78765        -8.00098         2.54929
O         -3.07881        -1.02204         1.97049
O         -4.50129        -5.24588        -1.38140
O         -6.79042        -3.21355         1.64140
O         -1.88789         9.13529        -0.91673
O          1.52977        -9.29950        -0.18223
O          9.62486        -1.36906        -2.09810
O          2.82017        -6.27474        -2.35874
O         -1.27539         1.06813         2.26522
H         -0.55082         0.66174         2.78937
O         -0.78384         4.43040         1.81095
O         -3.02533         3.50137        -0.80121
O         -1.04905        -4.91791         1.47585
O         -5.76508        -0.76614        -1.71563
H         -6.34975        -0.10795        -2.14942
O          6.94051        -4.38195        -1.74872
O         -0.12266        -1.18211         1.95608
O          2.99873         6.94525         1.87198
H          3.38457         7.36993         2.66741
O         -3.89886         9.72013         2.07988
H         -4.74681         9.32070         2.39601
O         -4.94843        -2.91711        -1.40243
H         -4.15900        -2.49182        -1.79448
O         -4.77311         1.73134        -1.59517
O          2.29886         1.42616        -2.37005
H          1.86476         0.56845        -2.60478
O         -2.12774        -6.49046        -1.71982
O         -3.53930         7.34046        -0.82093
O        -10.62263         3.43245        -1.47844
H        -10.14845         3.17284        -2.29686
O          2.55049         7.11361        -1.75420
O         -5.83578        -8.14325         1.87903
H         -5.93013        -7.21824         2.22988
O          3.34021        -0.95810        -2.31590
O         -4.53394        -7.84146        -1.56628
O        -10.81081         0.68889         1.80347
H        -11.33801         0.18929         2.47309
O          8.86620         0.93910        -2.85237
H          8.81893         1.88529        -3.10485
O         -2.63793         0.78273        -1.03731
O          0.75421         2.16661         1.53106
O          6.06514        -8.11515         0.08517
O          0.83005        -0.31156        -1.33433
O         -0.08857         7.34595        -1.95814
H          0.33042         8.22405        -2.18493
O         -5.86283         7.87339         1.97496
O          0.42063        -5.33388        -1.88771
O         -9.06051         1.00247        -1.81188
O         -9.08859        -4.21690         1.56367
H         -9.04841        -3.42207         2.13653
O          4.28729        -0.26328        -3.16505
H          3.86974         0.63619        -3.26885
O         -5.87976        -5.52074         1.98444
H         -6.46475        -4.87924         2.45776
O        -11.80088         0.94515         0.76143
O          7.47239         2.21344         0.30611
O         -2.86518         5.50448         2.08083
O          2.57109         3.47601         0.70765
O          1.30111         9.19215        -1.06923
O          3.89731         0.87099         0.86919
H          4.58712         0.26997         1.22181
O          6.60121         4.04578        -2.83293
H          5.76489         4.41195        -3.21498
O          4.16970         3.09919        -2.59779
O          5.40573        -6.47904        -2.04411
H          4.49881        -6.54867        -2.46208
O          5.35875         6.27553         1.79390
H          4.63068         5.67903         2.08021
O          4.10913        -9.95463         0.65872
H          3.50118       -10.00133        -0.11329
O          5.97018         8.40892        -1.09629
H          5.21249         9.05851        -1.04545
O         -2.72675       -10.23788        -1.19301
H         -3.14190       -10.00664        -2.05097
O          3.75612         9.76362        -0.33635
H          2.83956         9.72430        -0.76443
O          7.20124        -2.50392         1.34530
H          7.86066        -1.91123         1.76332
O          8.47299         7.89107        -0.39020
H          8.02073         8.35409        -1.13209
O          9.58445        -5.48708        -0.95407
H          8.97517        -5.35160        -1.71385
O         -8.10259        -4.87924        -1.88070
H         -8.78155        -4.28580        -2.26326
O         -3.11637        -8.75096         2.10547
H         -4.10795        -8.80536         2.12812
O         -5.46477         2.94413        -1.94387
H         -4.71142         3.56035        -2.13373
O         -5.49712        -1.32185         1.86820
H         -4.77087        -1.48077         2.51293
O         -5.00744         2.39063         2.08705
H         -5.19080         3.21398         2.59995
O          3.18675        -1.58437         1.29451
H          2.57711        -2.19626         1.77603
O          0.97427        -3.44123         1.85249
H          0.37153        -3.10168         2.55332
O         -5.35737         5.33890         2.57411
H         -4.64154         5.75103         3.10928
O          4.17725         5.54037        -2.60872
H          3.89125         6.47747        -2.74185
H         12.25286        -0.94475        -0.16652
H         12.15912         1.48926        -0.38600
H         10.93982         3.55179        -0.65011
H          9.60202         5.70143        -0.51246
H          7.77105         6.95554         1.31690
H          7.05042         9.20089         1.75435
H          4.91329        10.22016         2.46524
H          2.40484        10.23441         2.43932
H         -0.04144        10.52444         2.13719
H         -2.27203        10.97392         0.18054
H         -4.90279        10.91674        -0.54820
H         -6.98282         9.63468        -0.65143
H         -8.38501         7.57371        -0.12640
H         -9.52754         5.45487        -0.33568
H        -10.55482         3.00464         0.53637
H        -11.87245         0.94717        -1.29269
H        -11.95865        -1.48063        -0.68825
H        -10.80031        -3.53308        -0.42693
H         -9.40037        -5.76269        -0.48698
H         -8.16806        -7.88470        -0.29853
H         -6.95292       -10.10652         0.00990
H         -4.85999       -11.30642        -0.28017
H         -2.55378       -10.69355         1.51975
H         -0.37763       -10.37590         2.35857
H          2.17255        -9.26736         3.13182
H          4.39942        -9.22010         3.57430
H          6.46211        -7.92293         3.41548
H          8.21818        -6.76313         1.98184
H          9.61691        -5.11933         1.07873
H         11.03939        -3.24147        -0.05179
