         762
 CSIRO Nanostructure Databank - Neutral Graphene Oxide Data Set
C         23.50925        24.63545         0.74076
C         22.34237        25.11081         0.10750
C         23.16663        27.40769         0.16577
C         22.18027        26.46211        -0.17278
C         23.07228        28.74581        -0.32163
C         21.82302        29.34600        -0.64850
C         22.52642        31.55298        -1.56924
C         21.58057        30.68757        -0.98634
C         22.52124        32.98582        -1.58050
C         21.42467        33.73119        -1.04564
C         22.66131        35.84319        -1.30546
C         21.48049        35.09933        -0.97323
C         22.68103        37.25784        -1.25931
C         21.47828        38.01305        -1.00396
C         22.67104        40.14325        -1.22312
C         21.44091        39.37042        -1.01669
C         22.74262        41.64247        -0.91498
C         21.54436        42.35739        -0.40231
C         22.77863        44.48423        -0.44642
C         21.56089        43.68491        -0.18563
C         22.77272        45.97588        -0.26819
C         21.56835        46.69519        -0.34085
C         22.78094        48.79314        -0.43315
C         21.57788        48.09118        -0.40465
C         25.72001        23.67489         2.37633
C         25.64473        24.98910         1.91616
C         24.49720        25.49253         1.20698
C         25.53561        27.84435         1.09395
C         24.27001        26.99151         1.14096
C         25.39698        29.12362         0.57764
C         24.29526        29.52837        -0.29421
C         25.64171        31.49955        -1.02268
C         24.51965        30.59892        -1.14155
C         25.59354        32.75138        -1.59209
C         23.66059        33.75690        -1.98215
C         25.12908        35.83040        -1.86743
C         23.84006        35.12542        -1.71530
C         25.14265        37.28570        -1.77197
C         23.91751        37.96384        -1.47742
C         25.14664        40.05837        -1.22660
C         23.92681        39.36956        -1.29278
C         25.18461        41.40682        -0.69974
C         24.06802        42.20974        -0.53933
C         25.27399        44.50384        -0.00618
C         24.09661        43.71038        -0.39512
C         25.28371        46.00547         0.06482
C         23.99014        46.68977        -0.28004
C         25.29160        48.81134        -0.37183
C         24.00461        48.10108        -0.36150
C         25.41880        50.10493         0.05570
C         28.13146        23.76654         2.83482
C         26.92246        23.08372         2.82503
C         28.09629        25.22611         2.63621
C         26.78879        25.88192         2.18437
C         28.17751        27.94105         1.67872
C         26.89404        27.15241         1.34844
C         28.22966        29.37039         1.51814
C         26.37528        30.16289         0.81488
C         27.86685        32.05738         0.09469
C         26.62914        31.23864         0.00513
C         27.83200        33.37149        -0.65363
C         26.51939        33.82617        -1.25845
C         27.61136        35.86849        -2.18189
C         26.35798        35.15878        -1.89666
C         27.62796        37.39279        -2.24065
C         26.35659        38.05041        -1.85958
C         27.56535        40.32909        -1.90136
C         26.37271        39.42274        -1.56724
C         27.67510        41.48051        -0.91003
C         26.51713        41.82218        -0.28798
C         27.75142        44.51349         0.04135
C         26.49628        43.94341         0.33395
C         27.80986        45.86623        -0.38579
C         26.51971        46.58468        -0.61681
C         27.81578        48.81097        -0.87313
C         26.50234        48.07944        -0.82768
C         27.82541        50.23692        -0.45557
C         26.67547        50.80141         0.02687
C         30.61690        20.93844         3.26555
C         29.46895        21.66580         3.26070
C         30.60808        23.72752         2.62310
C         29.41354        23.06781         2.88681
C         30.69759        25.19861         2.50367
C         29.40086        25.94685         2.45088
C         30.65926        27.97803         1.65306
C         29.39183        27.29392         1.85065
C         30.59609        29.41042         1.24209
C         29.28595        30.03001         0.93475
C         30.42410        32.00848        -0.23921
C         29.22150        31.45174         0.47517
C         30.25986        33.18807        -1.12915
C         29.07267        33.89674        -1.25334
C         30.19860        35.95445        -2.31462
C         28.93222        35.13773        -2.07491
C         30.14071        37.43872        -2.23091
C         28.94527        38.10742        -2.14664
C         30.21538        40.31526        -1.68049
C         28.92245        39.60456        -2.05296
C         30.19527        41.65137        -1.02534
C         28.87931        42.43175        -1.01227
C         30.24105        44.35941        -0.09066
C         28.95126        43.57933         0.05961
C         30.24902        45.81833        -0.04251
C         29.03751        46.53852        -0.39983
C         30.24115        48.72902        -0.03021
C         29.09735        47.99506        -0.65854
C         30.40471        50.19299        -0.28209
C         29.10707        50.99054        -0.49714
C         30.34404        52.99423         0.22801
C         29.16929        52.40498        -0.11533
C         33.23559        19.38532         3.18326
C         33.17461        20.77399         2.79834
C         31.85583        21.47151         2.68888
C         33.12996        23.71408         2.40223
C         31.83770        22.96336         2.39651
C         33.11679        25.14339         1.98438
C         31.94495        25.86203         2.00563
C         33.15837        28.02374         1.49649
C         31.87856        27.30088         1.73581
C         33.12736        29.42923         0.87848
C         31.81616        30.17462         0.80537
C         32.83863        31.75464        -0.85471
C         31.63157        31.34414        -0.10010
C         32.77276        33.03420        -1.61606
C         31.47614        33.76569        -1.75338
C         32.74481        35.97782        -1.66666
C         31.50960        35.22684        -2.12513
C         32.70617        37.41734        -2.03183
C         31.46709        38.19412        -2.39424
C         32.65989        40.12194        -1.24286
C         31.48085        39.53487        -1.65567
C         32.61819        41.43609        -0.55323
C         31.35606        42.22014        -0.57353
C         32.69471        44.28761         0.04827
C         31.41407        43.63085        -0.17610
C         32.63950        45.67384         0.66568
C         31.43082        46.47847         0.25323
C         32.70620        48.68580         0.61424
C         31.44315        47.94512         0.43322
C         32.75218        50.08474         0.62597
C         31.58383        50.87232         0.29231
C         32.78730        52.95757         0.83387
C         31.57972        52.26444         0.42082
C         32.82232        54.35304         1.04455
C         35.65946        19.29640         2.86230
C         34.43132        18.71107         3.29032
C         35.54201        20.58257         2.07909
C         34.33032        21.42091         2.41435
C         35.54472        23.54073         1.59476
C         34.39930        22.90410         2.30108
C         35.54010        24.86169         1.26395
C         34.49317        25.78661         1.91937
C         35.55050        27.74167         0.53591
C         34.44667        27.21873         1.38325
C         35.35904        28.93590        -0.37700
C         34.22980        29.86631         0.01323
C         35.29284        31.67061        -1.26554
C         34.16571        31.11136        -0.64411
C         35.31149        33.01707        -1.85310
C         34.01580        33.77270        -2.03437
C         35.22604        35.92178        -2.19524
C         34.04634        35.26162        -2.01524
C         35.26623        37.41905        -2.18998
C         33.96723        38.16710        -2.04847
C         35.17715        40.12922        -1.09841
C         33.96157        39.50890        -1.43181
C         35.20563        41.51939        -0.68394
C         33.91920        42.15165        -0.30691
C         35.17883        44.23684         0.33111
C         33.88510        43.61109        -0.03966
C         35.17539        45.75173         0.68174
C         33.91964        46.46061         0.53053
C         35.25835        48.62082         0.95653
C         33.90025        47.87489         0.86528
C         35.23146        50.10049         0.91811
C         33.99718        50.79237         0.86884
C         35.21949        52.90870         1.27876
C         34.00110        52.21921         0.98033
C         35.20933        54.30503         1.54844
C         33.98876        55.00370         1.42020
C         38.27500        16.76906         3.71534
C         37.05679        17.37394         3.56832
C         38.13050        19.30999         2.47990
C         36.91439        18.66878         2.96586
C         38.08851        20.57056         1.87073
C         36.83705        21.35298         1.99876
C         37.86925        23.16275         0.50534
C         36.80694        22.75269         1.50440
C         37.95249        24.65273         0.33589
C         36.67329        25.40183         0.45481
C         37.94852        27.52635        -0.24285
C         36.65488        26.84023         0.07300
C         37.90516        28.91916        -0.75317
C         36.67303        29.74833        -0.44399
C         37.82657        31.67167        -1.51710
C         36.54776        30.87091        -1.46957
C         37.80005        33.08943        -1.69268
C         36.56550        33.77523        -1.82595
C         37.80964        35.95377        -2.17899
C         36.51842        35.18407        -2.24872
C         37.81842        37.48999        -2.16603
C         36.49549        38.10071        -1.72277
C         37.69689        40.04693        -0.83875
C         36.43204        39.38844        -1.24943
C         37.68036        41.52836        -0.61016
C         36.38762        42.26089        -0.59223
C         37.64380        44.35459        -0.00612
C         36.42762        43.62694        -0.14140
C         37.65049        45.72205         0.34288
C         36.45348        46.48126         0.54008
C         37.70465        48.64458         0.38554
C         36.46001        47.87764         0.58563
C         37.71760        50.10143         0.78579
C         36.44520        50.79733         1.06534
C         37.68507        52.89078         1.56123
C         36.46254        52.19595         1.31057
C         37.68303        54.25985         1.90159
C         36.42902        54.95920         1.98584
C         37.52367        56.72089         3.24153
C         36.38492        56.21221         2.61943
C         40.88080        15.44703         4.02478
C         40.79467        16.76203         3.51648
C         39.49562        17.41860         3.32446
C         40.61990        19.46166         2.45178
C         39.40233        18.67644         2.72626
C         40.53902        20.63545         1.57215
C         39.27173        21.24460         1.37712
C         40.37674        23.10777         0.18971
C         39.20738        22.50695         0.74159
C         40.29653        24.43215        -0.37984
C         39.09978        25.20284        -0.22972
C         40.18303        27.26291        -1.39825
C         39.14703        26.67919        -0.48689
C         40.20342        28.73682        -1.67645
C         39.02049        29.53331        -1.25006
C         40.27003        31.62766        -1.79474
C         39.02797        30.96677        -1.52432
C         40.26445        33.06299        -1.84853
C         39.04363        33.77782        -1.73829
C         40.26945        35.97545        -1.82161
C         38.98915        35.26193        -1.49606
C         40.30057        37.35574        -1.64490
C         39.04455        38.07313        -1.49751
C         40.22000        40.12740        -0.83003
C         39.00392        39.38728        -1.08094
C         40.21475        41.50971        -0.79811
C         38.94940        42.27076        -0.84969
C         40.21808        44.36620        -0.09352
C         38.94024        43.76149        -0.45539
C         40.25301        45.65886         0.58017
C         38.92895        46.40487         0.65295
C         40.27980        48.61413         0.71554
C         38.99747        47.88515         0.43280
C         40.26015        50.04824         1.07897
C         38.97272        50.68357         1.34667
C         40.22982        52.89951         1.75025
C         38.94784        52.15463         1.74468
C         40.21027        54.30309         2.03031
C         38.91126        54.89379         2.32647
C         40.70931        57.26829         3.11510
C         38.74664        56.05877         3.10231
C         40.92899        58.56448         3.48439
C         43.29157        15.44457         3.78903
C         42.11286        14.80423         4.15515
C         43.25706        16.76290         3.27501
C         41.99626        17.40956         3.13690
C         43.13206        19.34584         1.93131
C         41.97112        18.80755         2.67427
C         42.97657        20.47403         1.14062
C         41.70972        21.19024         1.00153
C         42.81273        22.94158        -0.43350
C         41.61645        22.39760         0.25948
C         42.75765        24.27996        -1.13686
C         41.43536        25.00415        -1.15441
C         42.65154        27.16391        -2.07564
C         41.39881        26.42924        -1.64287
C         42.64249        28.67254        -2.20095
C         41.49817        29.42307        -1.98751
C         42.67979        31.62145        -2.20204
C         41.48557        30.89492        -2.01117
C         42.71059        33.05657        -2.18807
C         41.50020        33.76241        -2.06623
C         42.81884        36.01623        -2.12921
C         41.45222        35.22705        -2.20499
C         42.77125        37.37701        -1.55868
C         41.55374        38.03681        -1.42678
C         42.76981        40.15741        -0.84181
C         41.50608        39.34885        -0.66402
C         42.75296        41.53234        -0.78655
C         41.47686        42.26192        -0.89219
C         42.75745        44.43071        -0.16224
C         41.47592        43.79881        -0.55754
C         42.73112        45.75363         0.38762
C         41.53204        46.40938         0.63751
C         42.75570        48.61645         1.30789
C         41.47589        47.80747         1.12058
C         42.69922        50.08341         1.20684
C         41.45728        50.76611         1.28472
C         42.65556        52.97477         1.39849
C         41.43452        52.21331         1.51983
C         42.61722        54.42341         1.48469
C         41.43065        55.06314         1.90606
C         42.64553        57.36181         1.53039
C         41.44103        56.56529         2.04367
C         42.87812        58.72068         2.05652
C         42.01700        59.30910         2.92409
C         45.75488        16.98982         3.35452
C         44.46815        17.45463         2.90629
C         45.61138        19.25230         1.70248
C         44.41711        18.67337         2.13899
C         45.50715        20.47146         0.88038
C         44.15521        21.04014         0.46144
C         45.30113        23.11041        -0.36492
C         44.13470        22.41780        -0.05409
C         45.22388        24.45329        -0.92870
C         44.02555        25.04841        -1.27332
C         45.24338        27.20076        -2.04266
C         43.95944        26.41739        -1.89093
C         45.23835        28.63053        -2.50534
C         43.91149        29.36739        -2.59661
C         45.19841        31.61533        -2.20055
C         43.92420        30.88578        -2.52539
C         45.21003        33.07998        -2.28088
C         43.98997        33.79138        -2.24137
C         45.27371        35.84963        -1.62751
C         44.01444        35.19583        -2.04007
C         45.27954        37.26811        -1.12967
C         44.00223        38.02850        -1.13602
C         45.25639        40.08496        -0.51266
C         44.00012        39.38872        -0.86367
C         45.28856        41.56666        -0.67575
C         44.00468        42.33302        -0.80666
C         45.21661        44.44365        -0.23082
C         43.98842        43.76532        -0.38663
C         45.24878        45.84313         0.04169
C         44.02178        46.44736         0.61778
C         45.19133        48.71468         0.52866
C         44.04352        47.89094         1.03372
C         45.26826        50.12941         0.98683
C         43.94148        50.84729         1.25100
C         45.03757        53.04372         0.66821
C         43.86290        52.30721         1.14978
C         45.04875        54.50747         0.81231
C         43.83801        55.17512         1.15232
C         44.99061        57.28445         0.69916
C         43.83352        56.59127         1.09325
C         46.91842        17.47354         2.84152
C         48.19714        19.03122         1.24543
C         46.86712        18.37712         1.64199
C         48.39626        20.37547         1.15566
C         46.54243        21.48523         0.91798
C         47.90884        23.29404        -0.01954
C         46.57628        22.61459         0.14955
C         47.83876        24.62326        -0.68512
C         46.47560        25.26006        -0.86047
C         47.72873        27.30440        -1.68326
C         46.45224        26.65874        -1.35257
C         47.68972        28.79941        -1.68915
C         46.56640        29.42299        -2.56422
C         47.78678        31.61640        -2.24587
C         46.50136        30.88668        -2.14903
C         47.82289        33.06210        -2.71828
C         46.48840        33.79900        -2.51701
C         47.81887        36.07787        -2.22671
C         46.51026        35.28384        -2.25400
C         47.76832        37.36735        -1.41153
C         46.58892        37.98578        -1.09347
C         47.82676        40.17964        -0.71112
C         46.59269        39.37710        -0.58742
C         47.83203        41.58183        -0.52093
C         46.54508        42.24805        -0.23436
C         47.76914        44.46017        -0.42290
C         46.51797        43.73822        -0.15888
C         47.66561        45.91125        -0.53756
C         46.42848        46.56342        -0.08006
C         47.72830        48.75482         0.13831
C         46.43566        48.03350         0.00724
C         47.65286        50.19377         0.32212
C         46.47422        50.86626         0.55932
C         47.56746        53.14498         0.32887
C         46.34697        52.32795         0.36172
C         47.51866        54.51749         0.34429
C         46.24339        55.21783         0.51886
C         46.17996        56.62263         0.44053
C         50.36030        18.69997         0.12326
C         49.30066        18.18504         0.79390
C         50.23094        20.05460        -0.48331
C         49.38530        21.04468         0.27632
C         50.07471        22.94152        -1.36627
C         49.19803        22.47890        -0.21948
C         50.12736        24.37086        -1.77403
C         48.97609        25.14685        -1.50059
C         50.07880        27.20774        -2.26278
C         48.90530        26.55395        -1.78861
C         50.21800        28.66464        -1.96149
C         48.99045        29.48283        -2.01555
C         50.25103        31.63361        -1.92043
C         48.98552        30.88405        -2.15898
C         50.39053        33.09239        -2.31937
C         49.04960        33.84570        -2.19816
C         50.28489        35.94829        -1.74583
C         49.02351        35.18197        -1.95108
C         50.22255        37.33428        -1.23296
C         49.04106        38.04805        -1.17141
C         50.25695        40.20162        -0.81860
C         49.06396        39.48374        -0.88707
C         50.32451        41.64213        -0.36779
C         49.01500        42.35580        -0.52860
C         50.25412        44.55093        -0.61137
C         48.99463        43.79125        -0.52595
C         50.23973        45.93300        -0.48413
C         48.97986        46.70604        -0.50326
C         50.21863        48.77419         0.33856
C         48.93824        48.09630         0.00033
C         50.19910        50.28206         0.47453
C         48.90846        50.96295         0.13362
C         50.11467        53.16395         0.62331
C         48.86332        52.45116         0.16742
C         49.99115        54.63976         0.31240
C         48.78685        55.24434         0.23359
C         52.43336        20.02930        -1.87347
C         51.09161        20.59524        -1.58752
C         52.72752        22.96971        -2.61004
C         50.86860        22.01123        -1.96320
C         52.64404        24.44122        -2.71108
C         51.25986        25.00677        -2.43520
C         53.06436        27.43302        -2.48031
C         51.11130        26.38964        -2.70561
C         52.88258        28.74051        -1.91144
C         51.52822        29.36232        -1.75336
C         52.80900        31.58232        -1.55289
C         51.49579        30.86353        -1.62285
C         52.72742        33.02772        -1.22244
C         51.55579        33.72949        -1.57303
C         52.71644        35.86079        -0.90332
C         51.57479        35.18720        -1.53859
C         52.75869        37.23220        -0.83375
C         51.47921        37.97123        -0.82105
C         52.76891        40.17089        -1.00237
C         51.50590        39.46139        -0.64501
C         52.79391        41.67064        -1.13084
C         51.54165        42.43369        -0.81994
C         52.80133        44.55690        -0.91282
C         51.51244        43.80224        -0.81913
C         52.79360        46.02067        -0.59564
C         51.48085        46.75312        -0.48271
C         52.71993        48.84083         0.03575
C         51.51030        48.13636         0.02593
C         52.67624        50.32648         0.03924
C         51.44894        51.03099         0.21285
C         52.47289        53.17921        -0.31195
C         51.36173        52.44814         0.11313
C         53.58070        20.74651        -1.97448
C         54.97086        22.89162        -1.71238
C         53.71557        22.20858        -2.04437
C         55.16854        24.22264        -2.17111
C         54.04748        25.14292        -2.61870
C         55.26183        27.23423        -1.56285
C         54.14127        26.60318        -2.24273
C         55.11820        28.54602        -0.89660
C         53.92903        29.33306        -1.23894
C         55.16785        31.44703        -0.49912
C         53.99897        30.79676        -1.11901
C         55.00886        32.86218        -0.01318
C         53.86251        33.63109        -0.65200
C         55.07984        35.78919         0.06071
C         53.80246        35.05911        -0.35114
C         55.14298        37.22837        -0.25069
C         54.00049        37.93131        -0.58941
C         55.34789        40.14461        -0.75164
C         54.05554        39.38173        -0.92918
C         55.28651        41.59631        -0.45621
C         54.19052        42.35807        -1.18500
C         55.19720        44.45574         0.01778
C         54.12576        43.84483        -0.82961
C         55.09057        45.82001         0.43987
C         53.97247        46.64865         0.00701
C         55.13710        48.60446         0.77411
C         53.96414        48.04384         0.13430
C         55.49685        49.96505         0.66922
C         53.78237        51.14837        -0.31955
C         53.67405        52.52056        -0.55578
C         57.22636        22.91293        -0.71320
C         56.02530        22.26304        -1.00942
C         57.51310        24.18615        -1.25730
C         56.48593        24.70648        -2.07257
C         57.71243        27.32993        -1.12008
C         56.55700        26.83338        -1.78846
C         57.67270        28.60907        -0.58010
C         56.37418        29.28694        -0.45792
C         57.57825        31.44521         0.05053
C         56.34188        30.76543        -0.31335
C         57.57930        32.85543         0.18457
C         56.33275        33.61689         0.02407
C         57.54623        35.70791         0.54591
C         56.32916        34.98433         0.11683
C         57.56433        37.19820         0.55499
C         56.45955        37.88976        -0.17092
C         57.66956        40.09781         0.29678
C         56.56593        39.37746        -0.35658
C         57.56796        41.47698         0.49140
C         56.35984        42.23512         0.13172
C         57.36003        44.28487         1.17865
C         56.29357        43.67343         0.43834
C         57.22089        45.59912         1.71399
C         56.05209        46.36308         1.34957
C         56.59417        48.47133         2.67185
C         55.92474        47.78362         1.62889
C         56.79576        49.84704         2.67510
C         56.34263        50.59564         1.57247
C         59.86615        24.25716        -0.53397
C         58.76396        24.95099        -0.98408
C         60.14486        27.12851        -0.45716
C         58.90631        26.44541        -1.08701
C         60.07169        28.57452        -0.06164
C         58.86392        29.29717        -0.14632
C         60.01602        31.38906         0.48654
C         58.80425        30.70548         0.15575
C         60.00723        32.82268         0.61680
C         58.80842        33.52622         0.45281
C         59.95335        35.68119         1.28677
C         58.88737        35.03683         0.37568
C         60.01651        37.19925         1.03233
C         58.86094        37.91781         0.68242
C         60.03317        40.06226         0.97648
C         58.85340        39.34819         0.63728
C         59.96736        41.50386         1.08732
C         58.72343        42.18662         0.96406
C         59.77694        44.25148         1.74034
C         58.61752        43.56987         1.30605
C         59.63551        45.53381         2.39602
C         58.34139        46.12398         2.51090
C         59.33363        47.68646         4.16981
C         58.24687        47.16856         3.46754
C         61.01171        24.88888         0.05130
C         61.11355        26.24019         0.19044
C         61.22948        29.26042         0.37575
C         61.20598        30.62149         0.62457
C         61.23430        33.59332         0.82733
C         61.24369        34.91776         1.08629
C         61.19226        37.93463         1.30458
C         61.20137        39.32073         1.27936
C         61.13165        42.26479         1.35923
C         61.03785        43.60300         1.66500
C         60.74874        46.09996         3.06343
C         60.61083        47.17140         3.93152
O         26.89785        34.18692         0.14113
O         38.99954        27.39741         0.79544
O         27.10476        30.04534         1.99056
O         38.82399        51.08889         2.75519
O         53.80105        31.31114        -2.57254
O         44.85011        42.03026        -1.98699
O         37.40091        35.42577        -3.45194
O         26.29284        47.14212        -1.93037
O         44.87691        50.37185         2.35677
O         54.08894        35.40823         1.07303
O         38.85427        43.28822        -1.86597
O         50.65596        31.36583        -0.53380
O         39.51516        45.85340         1.87036
O         39.71844        27.76842        -2.68832
O         54.89505        39.71633        -2.07813
O         45.88533        39.58952         0.70390
O         46.26185        26.39313         0.08161
O         41.41980        57.22847         0.73346
O         41.48892        43.27898        -1.92879
O         33.24099        41.38749         0.77623
O         56.99335        38.45360        -1.41509
O         51.57737        22.35803        -3.12050
O         29.69202        40.30244        -3.09181
O         45.76458        31.12987        -0.90224
O         48.14922        24.49800         0.75926
O         31.27861        30.37033         2.14572
O         30.37303        48.41139         1.38121
O         55.48044        28.61802         0.52502
O         50.86138        28.75371        -0.58549
O         50.17038        49.45100         1.66057
O         45.42484        27.52402        -3.45438
O         31.69555        21.98748         1.30821
O         41.04596        25.33371        -2.54118
O         52.58457        40.80976        -2.30662
O         52.11878        27.03496        -3.42514
O         60.01795        26.91035        -1.90394
O         36.22166        25.86452        -0.91127
O         42.10340        35.79832        -3.37735
O         46.25567        34.79840        -3.60812
O         23.61716        30.88961        -2.17802
O         34.68521        38.07161        -3.37091
O         27.50688        36.59893        -3.45400
O         37.71297        40.60896         0.53128
O         34.64448        33.16571        -3.19070
O         53.40062        24.88872        -3.89210
O         45.42567        48.63308        -0.90444
O         43.25774        26.43950        -3.17501
O         22.59560        41.16971        -2.29046
O         41.42061        19.73787         3.67049
O         46.52850        42.87972         1.07992
O         26.50997        42.64573         0.83657
O         53.69691        44.49399        -2.07017
O         42.68114        23.04043        -1.90567
O         44.92946        20.17089        -0.44186
O         30.19220        25.91274         3.69049
O         52.22820        46.71414        -1.75709
O         39.80614        56.54089         3.88313
O         30.00970        50.64148        -1.59820
O         28.68646        48.44909        -1.97685
O         37.74273        49.69442        -0.62956
O         45.39410        52.62776        -0.72287
O         32.60551        31.75910        -2.31969
O         34.58879        48.12751         2.15462
O         45.32836        36.11460        -0.18094
O         57.23700        36.46351         1.78823
O         39.89129        48.26004        -0.66715
O         48.22872        46.51073        -1.74958
O         37.16462        22.46989         2.90392
O         57.00135        47.72158         3.78836
O         50.03713        22.18353         0.94231
O         56.78643        25.87204        -2.77586
O         41.99556        48.07725         2.44352
O         33.43418        29.20071         2.30403
O         27.20862        25.95937         3.55979
O         31.58661        34.22533        -3.15846
O         35.57865        28.00793         1.95688
O         51.22706        35.79660        -2.87219
O         29.52435        35.24546        -3.39679
O         51.45738        38.61800         0.54454
O         35.20650        44.70143         1.72447
O         49.86448        19.84830        -1.91156
O         24.70301        33.04901        -2.62180
O         23.49713        44.19508        -1.68079
O         48.99209        51.73886        -1.10815
O         43.84745        30.19044        -3.80812
O         44.32829        46.86577         2.01384
O         47.55839        21.26001         1.84574
O         55.06693        50.65092        -0.47969
O         33.96894        23.50436         3.58189
O         28.48316        32.31739         1.39208
O         35.33549        20.16162         0.67888
H         34.48676        19.67092         0.63879
O         27.19461        26.61769         0.00488
H         27.13905        27.35052        -0.64475
O         50.75398        33.11938        -3.72010
H         50.90988        34.06395        -3.95695
O         36.41627        30.26724        -2.80171
H         36.15949        30.97681        -3.43079
O         47.00292        29.43667        -3.92674
H         46.63930        28.63717        -4.37265
O         32.65314        35.88129        -0.17866
H         33.26579        36.54048         0.21389
O         48.05346        36.58450        -3.56820
H         47.63997        35.94922        -4.19873
O         50.12931        53.03715         2.07784
H         50.93788        53.47553         2.41558
O         37.35587        22.63775        -0.76838
H         37.90914        22.99816        -1.49420
O         41.50128        38.95602         0.75533
H         42.35684        38.51444         0.94736
O         36.85792        30.37738         0.84053
H         36.66058        29.72349         1.54885
O         31.56956        38.49909        -3.81536
H         30.89128        39.19109        -4.01016
O         28.74047        43.07803        -2.28938
H         28.44306        42.40340        -2.94857
O         50.54431        41.54423         1.10071
H         49.81139        41.00881         1.47659
O         27.24884        40.90309        -3.20164
H         27.34410        40.20381        -3.88265
O         25.51102        46.32539         1.48933
H         24.74648        45.99335         2.00579
O         32.50689        45.44199         2.11246
H         33.36203        45.04469         2.41085
O         54.64110        42.33099        -2.55382
H         54.48209        41.41849        -2.89752
O         23.68771        27.30685         2.46529
H         23.54271        28.27660         2.50192
O         34.90648        25.89539         3.30297
H         35.48488        26.68769         3.37980
O         35.00510        28.36278        -1.65082
H         35.30987        28.97292        -2.37123
O         37.94943        37.92115        -3.54730
H         37.52111        37.23100        -4.10927
O         54.61327        32.72812         1.39588
H         54.42597        33.64275         1.72509
O         59.30868        35.34933        -0.98512
H         58.76502        34.82789        -1.61184
O         59.59731        35.50420         2.67381
H         58.71252        35.92316         2.80656
O         29.03056        42.91392         1.33971
H         29.23147        43.58156         2.02808
O         38.71763        35.45612        -0.06643
H         39.42413        35.01277         0.44884
O         47.36749        29.16174        -0.31584
H         48.06986        28.80367         0.26896
O         48.01976        32.93948        -4.15277
H         47.48000        33.63590        -4.59135
O         46.58146        17.49685         0.49482
H         46.30617        18.06482        -0.25809
H         23.63721        23.54825         0.83615
H         21.58462        24.39095        -0.23061
H         21.31475        26.77849        -0.77270
H         20.92770        28.75850        -0.39019
H         20.56805        31.07340        -0.78968
H         20.51526        33.20446        -0.72486
H         20.59655        35.63099        -0.59998
H         20.53417        37.47373        -0.85267
H         20.48155        39.89396        -0.90757
H         20.61763        41.79102        -0.23099
H         20.67042        44.18972         0.21623
H         20.60777        46.16296        -0.36605
H         22.77219        49.88816        -0.52216
H         20.62613        48.63662        -0.46416
H         24.83905        23.02260         2.30217
H         24.54217        50.64869         0.43403
H         26.89831        22.00737         3.04350
H         26.68140        51.84207         0.37891
H         30.61756        19.93509         3.71412
H         28.56014        21.20424         3.67093
H         30.33050        54.06926         0.45082
H         28.24778        53.00432        -0.12121
H         32.31101        18.87703         3.48826
H         31.91178        54.95471         0.92814
H         34.42453        17.69763         3.71521
H         33.95554        56.08911         1.58412
H         38.31044        15.77649         4.18268
H         36.16224        16.84649         3.92560
H         37.47018        57.63124         3.85172
H         35.43407        56.75084         2.72285
H         39.97536        14.90377         4.32343
H         40.33217        58.99865         4.29618
H         44.24872        14.91541         3.88634
H         42.14904        13.77910         4.54872
H         43.78169        59.26407         1.75272
H         42.19993        60.33208         3.27990
H         45.79220        16.24932         4.16689
H         44.96755        58.37577         0.59024
H         47.88922        17.12185         3.21838
H         47.06159        57.21008         0.15572
H         51.19694        18.05818        -0.18517
H         49.28939        17.12573         1.08793
H         50.89726        55.26152         0.26282
H         48.75789        56.33269         0.08355
H         52.50502        18.93147        -1.86907
H         52.42168        54.26786        -0.43940
H         54.52228        20.17831        -2.04362
H         54.56386        53.07513        -0.87869
H         57.95592        22.40481        -0.06692
H         55.86881        21.24581        -0.62428
H         57.34442        50.32272         3.49732
H         56.59546        51.65706         1.45996
H         59.83627        23.15847        -0.50712
H         59.17012        48.49026         4.89848
H         61.77761        24.23985         0.49946
H         61.91581        26.67121         0.80617
H         62.18073        28.71828         0.46975
H         62.14164        31.11646         0.91660
H         62.19591        33.06510         0.75369
H         62.20619        35.42493         1.24800
H         62.11410        37.40679         1.58507
H         62.13131        39.84264         1.54229
H         62.11939        41.78593         1.35281
H         61.95965        44.15364         1.88964
H         61.74516        45.66086         2.93556
H         61.48512        47.58004         4.45533
