         661
 CSIRO Nanostructure Databank - Neutral Graphene Oxide Data Set
C          5.67230        31.79504         0.79014
C          5.69811        33.14085         0.65428
C          8.18017        27.38045         0.80787
C          8.11554        28.79689         0.98657
C          6.93032        29.52784         1.01235
C          8.13319        31.64254         0.59049
C          6.88953        31.03226         1.27443
C          8.19459        33.17426         0.58165
C          6.92563        33.94617         0.71167
C          8.23240        36.11315         0.66855
C          6.95444        35.30345         0.85762
C          8.26402        37.55136         1.13466
C         10.80401        23.10355         0.34850
C         10.75719        24.49797         0.93518
C          9.46514        25.26103         0.72474
C         10.66529        27.44044         0.45029
C          9.40445        26.64392         0.71977
C         10.72055        28.75232         1.23228
C          9.40303        29.51756         1.25468
C         10.65835        31.73912         1.02039
C          9.40602        30.99902         1.12101
C         10.65810        33.15770         1.46514
C          9.47229        33.89927         0.86859
C         10.65163        36.00110         1.38040
C          9.45247        35.34752         1.09447
C         10.64488        37.39420         1.68409
C          9.44825        38.20874         1.47684
C         10.67059        40.46844         1.29323
C          9.51353        39.65201         1.33377
C         10.73628        41.69084         0.55972
C         13.41104        18.97681        -0.49555
C         13.36216        20.38330        -0.30794
C         12.11750        21.07457        -0.24195
C         13.24699        23.26552         0.02941
C         11.99917        22.46523         0.06229
C         13.25273        24.65408         0.50785
C         12.00133        25.31589         0.65562
C         13.19955        27.44567         0.74372
C         11.97125        26.70215         0.68535
C         13.20477        28.86679         0.72073
C         11.88895        29.55199         0.65208
C         13.18578        31.73378         1.00512
C         11.87776        31.05545         0.66713
C         13.12291        33.23997         0.88079
C         11.93936        33.90079         1.18964
C         13.16985        36.01897         1.36474
C         11.92715        35.30589         1.32740
C         13.12891        37.37935         1.82482
C         11.87514        37.89962         2.14892
C         13.16905        40.46568         1.51034
C         11.91244        40.04667         1.89637
C         13.21605        41.71555         0.76474
C         11.96896        42.33901         0.31592
C         13.25486        44.28928        -0.53256
C         12.03098        43.61292        -0.30653
C         13.33908        45.61018        -1.00395
C         15.89898        14.67448        -0.75798
C         15.96232        16.11108        -0.29377
C         14.66612        16.86032        -0.50391
C         15.89830        18.98099        -0.33309
C         14.63568        18.24998        -0.49190
C         15.84391        20.39215        -0.02074
C         14.60280        21.07702        -0.08815
C         15.76407        23.27212         0.42834
C         14.58553        22.54610        -0.04550
C         15.73192        24.64397         0.63999
C         14.46886        25.35413         0.61542
C         15.66883        27.51833         0.87857
C         14.45291        26.77116         0.78760
C         15.64707        28.92295         0.78272
C         14.40626        29.58584         0.65993
C         15.62932        31.83902         0.46321
C         14.35084        31.04830         0.29504
C         15.48156        33.18440         0.28456
C         14.32283        33.97707         0.68648
C         15.68622        36.15715         1.03363
C         14.38711        35.34507         1.04410
C         15.61549        37.50521         1.70105
C         14.36738        38.20044         2.15931
C         15.60614        40.31108         1.50237
C         14.38948        39.68679         1.71323
C         15.61449        41.81788         1.40043
C         14.42709        42.33713         0.60177
C         15.79442        44.34088        -0.20840
C         14.50348        43.56863        -0.19556
C         15.76063        45.77075        -0.54707
C         14.56140        46.36354        -1.01900
C         15.79487        48.48342        -1.39843
C         14.60923        47.73182        -1.43027
C         15.83850        49.84245        -1.88213
C         18.40179        10.52623        -1.63613
C         18.33762        11.90985        -1.29314
C         17.06065        12.49272        -1.08141
C         18.58861        14.94936        -1.44006
C         16.78547        13.69704        -0.30730
C         18.44811        16.23299        -0.91388
C         17.11504        16.92705        -1.02514
C         18.35597        18.99663        -0.12938
C         17.11763        18.33359        -0.46342
C         18.31551        20.41153         0.23143
C         17.04719        21.07655         0.28150
C         18.23345        23.25354         0.98875
C         16.96662        22.48485         0.72384
C         18.19806        24.72541         0.89593
C         16.95266        25.39521         0.88672
C         18.14897        27.52511         1.13511
C         16.93724        26.81326         0.95795
C         18.11325        29.01297         1.44792
C         16.93943        29.67826         0.73930
C         18.18141        31.90802         1.03149
C         16.96437        31.17616         0.52113
C         18.18936        33.27573         1.43477
C         17.29019        34.24707         0.93448
C         17.93143        36.08472         2.48866
C         16.91942        35.40960         1.57259
C         18.04580        37.43799         1.84651
C         16.85191        38.17343         1.70655
C         18.07304        40.24159         1.16548
C         16.87593        39.61256         1.49084
C         18.08332        41.66868         0.88951
C         16.93071        42.40179         0.94584
C         18.21683        44.46573         0.24059
C         16.91522        43.89020         0.71065
C         18.18546        45.86873        -0.09941
C         16.96801        46.51591        -0.45226
C         18.22014        48.60183        -0.84896
C         17.00107        47.87711        -0.88849
C         18.33018        49.86769        -1.66023
C         17.02181        50.56466        -1.97276
C         18.32648        52.57081        -2.63781
C         17.12182        51.84968        -2.58745
C         18.48437        53.77556        -3.36652
C         20.85382         6.50843        -2.90555
C         20.86267         7.77734        -2.37214
C         19.56969         8.34827        -1.85287
C         20.84443        10.50726        -1.42846
C         19.60735         9.84427        -1.67553
C         20.82267        11.90622        -1.12897
C         19.59471        12.59574        -1.15007
C         20.85511        14.72743        -0.34875
C         19.58153        14.04529        -0.86024
C         20.84264        16.19664        -0.29251
C         19.62454        16.87212        -0.36786
C         20.83611        18.99014         0.19205
C         19.56497        18.29748        -0.09962
C         20.83141        20.47024         0.41774
C         19.50741        21.11437         0.46759
C         20.79531        23.29588         0.61599
C         19.52592        22.52455         0.84225
C         20.64652        24.77943         0.37865
C         19.40134        25.45166         0.90041
C         20.62375        27.60353         1.54995
C         19.37878        26.85090         1.09626
C         20.60847        29.06230         1.14939
C         19.42046        29.73655         1.15158
C         20.61349        31.89428         1.50587
C         19.38192        31.18945         1.16935
C         20.59754        33.14757         2.06417
C         19.30065        33.82314         2.24167
C         20.57287        36.02694         2.35569
C         19.27159        35.31349         2.54817
C         20.58952        37.36430         1.88854
C         19.32770        37.99822         1.44411
C         20.65793        40.14505         0.99365
C         19.33270        39.46325         1.01609
C         20.64096        41.49482         0.35671
C         19.34134        42.26934         0.35699
C         20.67914        44.44392        -0.12690
C         19.37507        43.74287         0.20000
C         20.60247        45.91590         0.18380
C         19.40929        46.59775        -0.08044
C         20.67256        48.70212        -0.37406
C         19.40230        48.00742        -0.36355
C         20.64941        50.16387        -0.63236
C         19.38341        50.81525        -1.09912
C         20.79980        52.79139        -1.92196
C         19.45487        52.15567        -1.75733
C         20.97509        53.57249        -3.21174
C         19.74330        54.39469        -3.55917
C         21.10462        56.32097        -4.39842
C         19.86878        55.64323        -4.18223
C         21.15409        57.64187        -4.83822
C         23.23312         3.92264        -4.18434
C         22.04842         4.54084        -3.82254
C         23.29228         6.56462        -3.19115
C         22.05980         5.86444        -3.31679
C         23.30551         7.89299        -2.62787
C         22.09242         8.50265        -2.21185
C         23.33620        10.45649        -1.34957
C         22.10263         9.81648        -1.62634
C         23.33885        11.77674        -0.57476
C         22.07094        12.60124        -0.81775
C         23.39870        14.61414        -0.09510
C         22.09209        13.93465        -0.49453
C         23.30762        16.12007        -0.39180
C         22.12127        16.87452         0.16891
C         23.23998        19.07204        -0.46933
C         22.11834        18.34539        -0.18881
C         23.18610        20.57427        -0.71406
C         22.02628        21.26552        -0.00240
C         23.12883        23.46464        -0.56224
C         21.98572        22.62285         0.01083
C         23.09706        24.86901         0.06592
C         21.93626        25.42264         0.80310
C         23.16341        27.65228         1.02740
C         21.92646        26.87202         1.22009
C         23.16141        29.05965         1.14872
C         21.88238        29.76090         0.72560
C         23.11547        31.74605         1.82972
C         21.91321        31.30220         1.01758
C         23.09736        33.11724         2.45046
C         21.78174        33.84356         2.72827
C         23.03105        36.03161         2.36021
C         21.79982        35.33035         2.43108
C         23.02370        37.43527         2.14810
C         21.80878        38.08358         1.80521
C         23.14321        40.09753         1.09563
C         21.80991        39.47048         1.32520
C         23.19333        41.53651         0.56764
C         21.94894        42.26820         0.08510
C         23.16630        44.45909         0.58830
C         21.84202        43.71581         0.61101
C         23.12660        45.93242         0.70335
C         21.82867        46.66440         0.41673
C         23.17335        48.68401        -0.41881
C         21.84910        48.06858        -0.03302
C         23.15600        50.19811        -0.27507
C         21.93441        50.87788        -0.78972
C         23.27608        52.86057        -1.40851
C         22.00617        52.09603        -1.38870
C         23.39733        54.07585        -2.32230
C         22.29901        54.33648        -3.30909
C         23.62668        56.43370        -3.92495
C         22.37256        55.65391        -4.01443
C         23.65367        57.68373        -4.67667
C         22.37991        58.36873        -4.96879
C         23.59205        60.50144        -5.20035
C         22.41036        59.71153        -5.32766
C         24.45264         4.61597        -4.07743
C         25.80303         6.66097        -3.58631
C         24.49079         5.92186        -3.59562
C         25.79723         7.94458        -2.78641
C         24.53983         8.57608        -2.41547
C         25.84939        10.43261        -1.40938
C         24.53757         9.82903        -1.75910
C         25.87600        11.83731        -0.90656
C         24.60201        12.59565        -0.83358
C         25.78987        14.74991        -1.26020
C         24.59970        13.94859        -0.75121
C         25.81852        16.19646        -0.81194
C         24.53061        16.91301        -0.71519
C         25.70540        19.08997        -0.49512
C         24.52345        18.39446        -0.57398
C         25.75875        20.55331        -0.42065
C         24.50274        21.31746        -0.46807
C         25.77785        23.39783        -0.34438
C         24.49893        22.70680        -0.44841
C         25.97577        24.75602        -0.48145
C         24.10276        25.77285        -0.13568
C         25.68309        27.52054         0.93380
C         24.31424        26.99418         0.56597
C         25.66760        29.04485         1.03290
C         24.41266        29.74521         1.16367
C         25.60664        31.81265         1.78578
C         24.41599        31.13021         1.47620
C         25.57663        33.20135         2.16191
C         24.34958        33.90134         2.39352
C         25.54352        36.04692         2.33713
C         24.30768        35.30674         2.41852
C         25.55836        37.45920         2.27713
C         24.27448        38.24105         2.45763
C         25.57024        40.21385         1.56669
C         24.34684        39.56393         1.73671
C         25.63034        41.56547         0.95871
C         24.39219        42.33280         0.79759
C         25.60225        44.50040         1.11236
C         24.35540        43.75173         0.78597
C         25.61980        46.02265         1.03792
C         24.39208        46.71784         0.58047
C         25.66253        48.76668         0.05838
C         24.40649        48.03026         0.18443
C         25.71296        50.08390        -0.33093
C         24.48502        50.90277        -0.39089
C         25.76810        52.98228        -1.06792
C         24.51392        52.24840        -0.96161
C         25.84711        54.21645        -1.88267
C         24.73222        54.68181        -2.57265
C         26.01231        56.68546        -3.31027
C         24.78125        55.90589        -3.34670
C         26.04846        57.99013        -3.77785
C         24.96022        58.55108        -4.56854
C         24.78204        59.99219        -4.75301
C         27.00836         8.52205        -2.51073
C         28.27646        10.55468        -1.96645
C         27.10937         9.84447        -1.94210
C         28.27223        12.05768        -1.81623
C         27.21173        12.57202        -0.82164
C         28.28631        14.75204        -1.03913
C         27.11449        14.06675        -1.02548
C         28.27582        16.22892        -1.03162
C         26.98128        16.88217        -0.69937
C         28.25573        19.02695        -0.16044
C         26.96388        18.31578        -0.32461
C         28.31524        20.49593        -0.48041
C         26.98288        21.18922        -0.33119
C         28.28503        23.34410         0.12888
C         27.08618        22.66525        -0.51094
C         28.31477        24.73306         0.26255
C         27.09677        25.51266         0.03228
C         28.22001        27.57579         0.72215
C         26.96528        26.84544         0.40224
C         28.15010        29.05086         1.08864
C         26.84557        29.73266         1.27278
C         28.05883        31.78367         2.00316
C         26.85550        31.10898         1.69191
C         28.04334        33.19249         2.10456
C         26.80434        33.91227         2.17857
C         28.01719        36.04608         2.21574
C         26.78582        35.33404         2.26802
C         28.02397        37.46999         2.22939
C         26.78609        38.16885         2.18211
C         28.04899        40.31784         1.99585
C         26.80642        39.58858         1.94024
C         28.07389        41.70825         1.78138
C         26.95287        42.35157         1.12800
C         28.10885        44.52700         1.13677
C         26.89819        43.81862         1.10528
C         28.10110        45.95045         0.81974
C         26.92986        46.65884         0.78723
C         28.23046        48.84162         0.38660
C         26.92022        48.11670         0.51523
C         28.25988        50.07272        -0.41656
C         26.97844        50.69261        -0.88319
C         28.34945        52.78694        -1.29851
C         27.07023        52.21220        -0.81458
C         28.38876        54.29384        -1.45203
C         27.11948        54.88094        -2.04553
C         27.17071        56.09311        -2.68873
C         29.58860        12.72076        -1.46341
C         30.79807        14.77840        -0.82383
C         29.58585        14.05051        -1.09214
C         30.82495        16.15932        -0.60197
C         29.57819        16.93947        -0.79416
C         30.69221        18.95897         0.09468
C         29.55213        18.32025        -0.29281
C         30.60150        20.35193         0.60697
C         29.44009        21.17301         0.27959
C         30.66965        23.24938         0.85297
C         29.45087        22.56260         0.45879
C         30.65984        24.66440         1.01602
C         29.49397        25.39094         0.75852
C         30.57241        27.45692         1.54158
C         29.45397        26.80655         1.01461
C         30.33773        28.76659         2.08621
C         29.28544        29.60063         1.84093
C         30.58383        31.81583         1.81464
C         29.34116        31.04277         2.33129
C         30.50869        33.18865         1.71815
C         29.27688        33.91990         1.99630
C         30.45000        36.11953         1.82887
C         29.23369        35.31943         2.01918
C         30.47909        37.49290         2.33105
C         29.26834        38.20901         2.30574
C         30.54143        40.36490         2.26661
C         29.28282        39.63239         2.29009
C         30.54113        41.75764         2.15355
C         29.25369        42.54977         2.19722
C         30.59204        44.52692         1.23700
C         29.33237        43.85335         1.42108
C         30.63140        45.84783         0.69845
C         29.37757        46.57350         0.29025
C         30.72779        48.62694        -0.12613
C         29.53256        48.07304         0.63472
C         30.68364        49.92199        -0.69250
C         29.46818        50.63973        -0.83960
C         29.46116        52.00486        -1.36899
C         31.99208        16.87635        -0.24017
C         33.16662        18.99170         0.26131
C         31.97767        18.26467         0.05682
C         33.19164        20.39450         0.50338
C         31.94300        21.09834         0.86533
C         33.14199        23.27980         0.81537
C         31.90942        22.55848         0.87991
C         33.15943        24.68263         1.01945
C         31.90693        25.32784         1.56933
C         33.11412        27.54416         1.42470
C         31.90736        26.84447         1.51095
C         33.18693        29.00948         1.37395
C         32.11043        29.84787         1.84016
C         32.87741        31.80210         0.63801
C         31.80720        31.12042         1.41042
C         32.93017        33.26591         0.85439
C         31.58897        33.95074         0.96364
C         32.97998        35.98559         1.76895
C         31.69911        35.42314         1.36891
C         33.07267        37.36326         2.25814
C         31.75622        38.18115         2.46818
C         33.01029        40.25425         1.91677
C         31.80132        39.63713         2.26340
C         33.10262        41.71854         1.89501
C         31.79310        42.51881         2.09581
C         33.13121        44.61678         1.57777
C         31.80019        43.89911         1.61291
C         33.07500        45.90934         0.82520
C         31.87971        46.51492         0.46494
C         31.87295        47.84287        -0.12371
C         34.35187        21.15245         0.35379
C         35.54417        23.31591         0.35548
C         34.36528        22.57513         0.51919
C         35.55851        24.72804         0.49011
C         34.34767        25.41695         0.86924
C         35.54839        27.54973         0.79795
C         34.36809        26.85044         1.06170
C         35.65124        29.03284         1.04516
C         34.31158        29.68475         0.94820
C         35.49834        31.90965         0.69473
C         34.22004        31.09023         0.55163
C         35.30119        33.32573         0.09691
C         34.11028        33.93703         0.82811
C         35.51294        35.98043         1.48897
C         34.18462        35.24090         1.49352
C         35.38794        37.42446         1.38711
C         34.25186        38.12718         1.80089
C         35.28970        40.13815         0.84634
C         34.19279        39.51369         1.55739
C         35.23562        41.52474         0.60334
C         34.20615        42.35998         1.13732
C         34.21000        43.73274         0.98587
C         36.73578        25.46711         0.25134
C         37.91209        27.61709         0.02801
C         36.75064        26.87632         0.35868
C         37.93007        29.04452        -0.03046
C         36.74425        29.76271         0.29751
C         37.87911        31.88801        -0.12943
C         36.71232        31.16273         0.19005
C         37.89522        33.37919        -0.09998
C         36.61824        34.15441         0.05936
C         38.04362        36.07893         1.12865
C         36.68910        35.53250         0.67898
C         37.25180        36.82608         0.04418
C         36.38433        37.96084         0.52905
C         36.34709        39.32846         0.28546
C         39.09860        29.78252        -0.35337
C         40.33747        31.94714        -0.40219
C         39.09689        31.18687        -0.33523
C         40.38873        33.26448        -0.06943
C         39.19059        34.03222         0.23298
C         39.24268        35.28910         0.76082
O         26.57191        41.70374        -0.15039
O         16.58002        33.88830        -0.22038
O         32.77110        42.30315         3.19369
O         35.15284        35.26692         2.67051
O         30.94696        36.25032         0.38248
O         22.30816        46.41851         1.84689
O         37.23850        34.05757        -1.25947
O         23.48130        14.31750         1.27572
O          9.08385        33.58347        -0.53351
O         17.25415        30.22875        -0.57885
O         22.12222        25.75990         2.20173
O         27.46284        48.93305         1.64625
O         19.88577        53.28566        -0.91451
O         23.57199        16.44437        -1.78211
O         25.01986        25.51045        -1.15401
O         23.01548        54.25871        -0.93207
O         15.48057        43.45180        -1.31262
O         32.56747        37.66808         3.58818
O         31.36636        29.28543         2.89344
O         13.96069        23.13730        -1.24941
O         19.83233        14.21453         0.57300
O         19.30133        38.39704         0.01508
O         33.34757        31.26317        -0.62117
O         19.13597        34.32728         3.62596
O         19.66920        50.79997         0.30876
O         23.71223        50.77662         0.90951
O         27.53440        18.61237         1.03619
O         28.45613        28.65454        -0.29227
O         23.06453        31.88487         3.28095
O         24.63308        57.74376        -5.74631
O         20.46994        22.84760         1.94778
O         31.16052        20.50078         1.94194
O         17.45266        22.71664         2.10614
O         20.98803        19.53565         1.56589
O         11.69840        30.27065        -0.59189
O         19.79707        41.53043        -0.83966
O          9.30079        30.33178         2.49981
O         28.99258        16.84272        -2.15570
O         26.49489        52.96033         0.25841
O         18.81986        49.42866        -2.91861
O         25.45692        45.35148         2.32177
O         22.71067        54.36705        -4.70486
O         23.41988        40.38654        -0.32982
O         11.83460        39.08098         2.90702
O         25.88785        10.70999         0.04396
O         10.47484        33.17162         2.92561
H          9.85859        32.44219         3.15968
O         25.60586        14.79177        -2.71263
H         24.81709        15.36458        -2.86914
O         29.86436        48.17565         2.02879
H         29.03683        48.42291         2.50719
O         20.55661        24.92573        -1.07025
H         20.43222        25.87396        -1.28613
O         18.46529         7.95170        -2.67387
H         18.62938         8.27232        -3.58408
O         33.51181        44.93236         2.96471
H         33.46331        44.07851         3.46025
O         20.50581        27.62843         3.00993
H         20.85429        26.76227         3.33033
O         16.62871        44.55267         1.99572
H         17.44335        44.52163         2.54162
O         21.45456        43.62288         2.00872
H         21.64533        44.50260         2.41591
O         22.90037        23.57760        -1.99943
H         23.54734        24.23572        -2.33854
O         15.95554        36.47840        -0.36475
H         16.18115        35.62672        -0.81136
O         29.27179        46.50623        -1.16925
H         29.29959        45.56180        -1.43162
O         13.38686        31.49208         2.42876
H         12.72370        32.01921         2.92654
O         21.05070        52.51799        -4.20911
H         21.44047        52.91640        -5.02166
O         14.09332        31.10823        -1.13316
H         14.84277        30.66971        -1.58952
O         25.80259        27.11028         2.36202
H         24.99561        27.41610         2.83188
O         23.29905        11.47956         0.84336
H         23.36443        12.36381         1.29850
O         17.40749        13.79379         0.87818
H         17.24066        14.69403         1.26049
O          8.36144        36.23415        -0.80949
H          8.58355        35.32496        -1.13407
O         16.70928        16.98186        -2.43187
H         17.19763        17.71678        -2.85945
O         24.17489        38.54896         3.89542
H         24.18168        37.69798         4.38354
O         10.79575        24.27865         2.40107
H         10.84395        25.16173         2.82774
O         27.35326        22.84114        -1.98803
H         26.55986        22.50610        -2.46113
O         17.94416        14.57247        -2.57327
H         17.35886        15.32784        -2.84657
O         14.43780        38.26613         3.61848
H         13.63803        38.75790         3.91529
O         22.19689        16.79394         1.60619
H         21.52839        17.39961         1.99216
O         16.28639        16.17531         1.12606
H         15.45389        16.08703         1.63542
O          8.02697        31.22814        -0.78916
H          8.65634        31.77790        -1.30937
O         17.42447        36.24415         3.82617
H         17.70416        35.44590         4.33067
O         26.87135         5.80375        -3.16271
H         26.69429         5.52928        -2.23974
O         38.18883        36.69534         2.37712
H         37.35512        37.14917         2.61922
O         29.53109        54.71109        -2.19547
H         29.44013        54.38528        -3.11405
O         11.05658        28.40489         2.59072
H         10.69979        29.11812         3.16864
O         31.11273        33.88689        -0.41224
H         30.81420        34.79673        -0.65732
O         22.13972        42.33196        -1.34180
H         22.39260        41.42617        -1.63457
O         22.14920        31.98237        -0.25672
H         21.32724        31.90956        -0.78882
O         34.87203        33.19605        -1.26540
H         35.66827        33.29639        -1.83910
O         10.62197        27.79126        -0.95423
H         10.61135        26.96499        -1.47996
O         29.04577        42.91459         3.61336
H         29.84010        43.40450         3.91588
O         27.88816        12.55407        -3.13674
H         28.65170        12.44781        -3.74102
O         27.73432        12.38600         0.51194
H         27.27578        11.60038         0.89440
O         21.89319        29.58731        -0.72925
H         22.59629        30.17753        -1.08392
O         31.89842        25.00502         3.00743
H         32.71939        25.37160         3.39927
O         29.42913        31.04272         3.78322
H         30.22338        30.50820         4.01531
O          6.90400        31.27696         2.70171
H          7.63465        30.73559         3.08674
O         21.58234        33.76124         4.16249
H         21.76562        32.82979         4.42143
O         22.90918        20.71969        -2.14260
H         22.85848        21.68933        -2.33729
O         15.38367        42.29506         2.77221
H         15.57195        43.26671         2.77324
O         17.87762        29.12958         2.87421
H         18.63565        28.68720         3.32309
O         28.68847        20.54301        -1.89276
H         28.50246        21.46499        -2.20793
O         23.30220        48.48084        -1.86923
H         22.89237        47.62304        -2.11125
O         36.03847        29.20353         2.47764
H         36.89799        28.74392         2.59827
O         26.87473        50.46086        -2.34379
H         26.95904        49.49736        -2.50824
O         35.70651        32.08231         2.12048
H         35.85879        31.18690         2.51194
O         20.85724        44.46740        -1.56506
H         20.85486        43.53255        -1.88603
H          4.71556        31.25862         0.69521
H          4.76255        33.67950         0.43533
H          7.23338        26.81697         0.79373
H          5.97867        28.99703         0.84840
H          6.00374        35.85293         0.94614
H          7.37575        38.16168         0.90405
H          9.86927        22.52117         0.34946
H          8.53275        24.69102         0.87182
H          8.59542        40.11011         0.92783
H          9.81333        42.11790         0.13913
H         12.46816        18.42049        -0.60646
H         11.19501        20.47979        -0.32562
H         11.08897        44.11580        -0.57413
H         12.41139        46.12409        -1.29919
H         15.44312        14.51288        -1.74656
H         13.72234        16.29607        -0.55339
H         13.68898        48.20072        -1.81122
H         14.89043        50.31227        -2.19143
H         17.46907         9.96045        -1.77866
H         16.19987        11.98950        -1.55236
H         16.24487        52.25005        -3.12244
H         17.59632        54.23563        -3.82898
H         19.89840         5.97094        -2.99710
H         19.37971         7.89686        -0.83730
H         18.94661        56.17644        -4.46337
H         20.21281        58.16348        -5.06946
H         23.22489         2.89258        -4.56694
H         21.09051         4.00910        -3.91316
H         23.50622        61.58314        -5.37797
H         21.47087        60.21406        -5.59974
H         25.39121         4.12891        -4.37708
H         26.03767         6.93753        -4.65512
H         26.91836        58.62401        -3.54805
H         25.61702        60.66366        -4.50497
H         27.92911         8.00967        -2.82861
H         29.17769        10.07852        -2.38846
H         28.50805        54.71739        -0.41519
H         28.13302        56.62173        -2.75864
H         30.53870        12.17963        -1.59904
H         31.74156        14.21251        -0.77170
H         31.60966        50.35734        -1.09884
H         30.41745        52.44953        -1.68421
H         32.94874        16.33479        -0.17723
H         34.12863        18.47453         0.12283
H         34.02288        46.44435         0.66153
H         32.81251        48.23670        -0.54131
H         35.29006        20.64993         0.07402
H         36.47982        22.79550         0.10309
H         36.03546        41.99780         0.01426
H         35.04291        44.21202         0.44933
H         37.64893        24.93990        -0.06180
H         38.82021        27.06670        -0.25948
H         37.63186        36.82344        -0.98985
H         37.09977        39.81787        -0.34952
H         40.04028        29.24431        -0.53774
H         41.26628        31.40060        -0.62265
H         41.35793        33.78299        -0.02098
H         40.21981        35.71895         1.03104
