         576
 CSIRO Nanostructure Databank - Neutral Graphene Oxide Data Set
C          6.52060        19.53960         1.32083
C          6.15210        20.64448         0.36274
C          4.99765        21.51641         0.78580
C          6.30750        23.61733         0.52751
C          5.02506        22.85415         0.74145
C          6.16614        25.03582         0.03887
C          9.16652        15.43710         2.22492
C          8.54051        16.53942         1.53714
C          7.97798        17.69063         2.00609
C          8.62127        19.26202         0.06714
C          7.64675        18.80263         1.09128
C          8.56386        20.68321        -0.30137
C          7.39776        21.41750        -0.00340
C          8.41704        23.45343        -0.84394
C          7.35973        22.80836        -0.18646
C          8.24375        24.86521        -1.38055
C          7.14936        25.67914        -0.66708
C          8.35422        27.81458        -1.03331
C          7.15759        27.10166        -0.83780
C          8.40584        29.21238        -1.12578
C         11.62336        11.27264         2.67470
C         11.48613        12.54299         2.04374
C         10.47986        13.43200         2.38708
C         10.92529        14.90002         0.36044
C         10.16090        14.63847         1.67740
C         10.94922        16.35103        -0.11956
C          9.79164        17.07795        -0.18889
C         10.83392        19.15488        -1.07569
C          9.68080        18.50775        -0.41080
C         10.90204        20.63397        -1.18417
C          9.67358        21.35498        -0.89169
C         10.70179        23.40291        -1.89375
C          9.56654        22.72722        -1.21232
C         10.78612        24.90292        -1.84229
C          9.59244        25.58068        -1.23696
C         10.91072        27.75752        -1.24160
C          9.62610        27.04975        -1.07001
C         10.88371        29.13089        -1.11278
C          9.65695        29.91033        -1.18214
C         11.03581        32.02437        -1.52372
C          9.73254        31.28533        -1.36732
C         10.92220        33.39199        -0.92891
C         13.76319         6.81790         2.18935
C         13.86148         8.20881         2.54840
C         12.77561         9.08663         2.76245
C         13.94802        11.19699         1.95555
C         12.78957        10.49983         2.53438
C         13.78482        12.33178         1.11422
C         12.38428        12.83106         0.84893
C         13.47779        14.92174         0.06926
C         12.33775        14.30061         0.46299
C         13.48436        16.28726        -0.52384
C         12.17476        16.95792        -0.68047
C         13.40513        19.22728        -1.03372
C         12.12485        18.39323        -1.10594
C         13.28181        20.42576        -1.98772
C         12.04562        21.24274        -1.63603
C         13.28757        23.42502        -2.10961
C         12.00270        22.66660        -2.04401
C         13.39132        24.78037        -1.86842
C         12.13543        25.60184        -1.79899
C         13.37405        27.71611        -1.24240
C         12.15564        27.02750        -1.36072
C         13.37930        29.07326        -0.82541
C         12.09673        29.81411        -0.59715
C         13.34857        31.90473        -0.55170
C         12.20546        31.27210        -0.92791
C         13.42756        33.39850        -0.66816
C         12.08790        34.03559        -0.24562
C         13.37225        36.17371        -0.28080
C         12.18505        35.52341        -0.48221
C         13.46953        37.61500        -0.41476
C         16.18068         6.71246         1.65359
C         14.87695         6.10926         1.79507
C         16.27497         8.11400         1.93614
C         15.20271         8.69948         2.57423
C         16.35980        11.11025         1.36519
C         15.25321        10.77835         2.19529
C         16.17856        12.26810         0.54995
C         14.89968        12.90635         0.51637
C         15.97700        14.94473        -0.49284
C         14.70256        14.12846        -0.33837
C         16.00156        16.29536        -0.77596
C         14.76889        17.11472        -0.45490
C         15.90775        19.04742        -1.80380
C         14.65700        18.38837        -1.29194
C         15.89363        20.53043        -2.14244
C         14.57080        21.24577        -2.03931
C         16.29301        23.59389        -2.05905
C         14.42932        22.55782        -2.41756
C         16.00318        24.84047        -1.46911
C         14.72602        25.56884        -1.95796
C         15.79483        27.57595        -0.53591
C         14.67022        27.00120        -1.36531
C         15.69321        28.96996        -0.01529
C         14.53365        29.73223        -0.35514
C         15.60940        31.80231         0.46239
C         14.50317        31.14595        -0.09436
C         15.57142        33.24149         0.67457
C         14.55007        34.00514         0.14402
C         15.64302        36.13605         0.71264
C         14.54964        35.45125         0.21597
C         15.71430        37.57846         0.56846
C         14.58375        38.27710        -0.01988
C         18.63955         6.56985         1.34688
C         17.34929         5.97590         1.39372
C         18.77700         8.04277         1.58089
C         17.55555         8.87856         1.80898
C         18.61258        10.78214         0.49833
C         17.54323        10.30225         1.29365
C         18.46371        12.01552        -0.23692
C         17.26241        12.73770        -0.25067
C         18.36189        14.78618        -1.34724
C         17.13018        14.08521        -0.87436
C         18.51385        16.26647        -0.99727
C         17.20762        17.00888        -1.17934
C         18.45236        19.08174        -1.69626
C         17.21383        18.34841        -1.57305
C         18.46492        20.48062        -1.57988
C         17.24092        21.26377        -1.92896
C         18.31980        23.26802        -0.81796
C         17.27455        22.70940        -1.59607
C         18.19435        24.61761        -0.37937
C         16.99190        25.35744        -0.62011
C         17.94595        27.28330         0.77446
C         16.70021        26.59327         0.19941
C         17.94334        28.78137         0.99753
C         16.77609        29.59847         0.58074
C         17.94941        31.67434         1.23597
C         16.78912        31.03274         0.78498
C         17.93742        33.10228         1.66314
C         16.66420        33.89730         1.45149
C         18.00433        36.13046         1.74912
C         16.60730        35.43012         1.65653
C         18.06361        37.58980         1.38929
C         16.85272        38.26913         0.89795
C         21.02853         6.36185         0.71686
C         19.77306         5.79055         1.08679
C         20.98333         7.82273         0.32548
C         20.07331         8.74320         1.17099
C         20.99305        10.59515        -0.21316
C         19.87042        10.05614         0.40682
C         20.94249        11.90426        -0.85928
C         19.61249        12.51630        -1.02342
C         20.83859        14.67466        -1.77860
C         19.59628        13.95500        -1.50000
C         20.68463        16.02776        -2.17005
C         19.68605        16.88082        -1.72772
C         21.04299        19.12657        -1.70416
C         19.72354        18.35428        -2.11477
C         20.90396        20.46199        -1.01386
C         19.64669        21.16453        -1.13245
C         20.68598        23.21670        -0.18730
C         19.55671        22.52932        -0.66540
C         20.57324        24.56271         0.29039
C         19.33519        25.26512         0.22444
C         20.43919        27.34458         0.93862
C         19.26131        26.62309         0.64651
C         20.43051        28.79325         1.15256
C         19.23228        29.47995         1.14470
C         20.52083        31.71256         1.47226
C         19.16142        30.90680         1.48095
C         20.47928        33.14575         1.33079
C         19.26229        33.83584         1.78648
C         20.58937        36.02505         1.35682
C         19.30555        35.34635         1.75993
C         20.55754        37.48229         1.13148
C         19.35295        38.18707         1.05487
C         23.33409         6.20835        -0.22930
C         22.16522         5.62649         0.41821
C         23.33844         7.55620        -0.54294
C         22.37938         8.43800         0.21573
C         23.33697        10.41580        -0.86105
C         22.23039         9.83171        -0.33211
C         23.32933        11.87568        -1.00300
C         22.06377        12.53617        -1.36069
C         23.49208        14.73814        -1.71240
C         22.11291        13.94911        -1.83338
C         23.57256        16.21748        -1.49732
C         22.63708        17.05708        -2.05095
C         23.57113        19.09429        -0.95418
C         22.44551        18.48859        -1.73802
C         23.35520        20.45804        -0.39255
C         22.03528        21.12014        -0.53410
C         22.88506        22.99487         1.05937
C         22.04597        22.58939        -0.26501
C         22.97534        24.51524         1.00062
C         21.72945        25.24796         0.78497
C         22.90317        27.40204         1.21873
C         21.66487        26.63275         1.01059
C         22.90147        28.85259         0.92332
C         21.68733        29.54496         1.11526
C         22.88355        31.66052         0.69805
C         21.71505        30.95956         1.07555
C         22.78653        33.14909         0.39942
C         21.83021        33.83227         1.41369
C         23.14270        36.01626         1.20222
C         21.76792        35.33808         1.25691
C         23.05196        37.51786         0.95358
C         21.75557        38.17509         0.93689
C         25.75680         6.04569        -0.73541
C         24.53709         5.43241        -0.46161
C         25.80437         7.47657        -0.98615
C         24.48242         8.14280        -1.32928
C         25.86545        10.37048        -1.17309
C         24.54870         9.66233        -1.25294
C         25.84349        11.72836        -0.51166
C         24.61656        12.57609        -0.85852
C         25.96114        14.67660        -0.80280
C         24.75281        13.98367        -1.34347
C         25.84950        16.08653        -0.38087
C         24.68078        16.81606        -0.72730
C         25.69354        18.79386         0.29707
C         24.62636        18.19434        -0.40350
C         25.60486        20.21154         0.66729
C         24.21709        20.81701         0.84956
C         25.45878        23.08062         0.79062
C         24.20056        22.30312         1.06091
C         25.43352        24.47270         1.47187
C         24.15824        25.18317         1.09234
C         25.36793        27.32978         0.53385
C         24.18351        26.65966         1.14306
C         25.35837        28.82999         0.22499
C         24.07940        29.54347         0.60719
C         25.30300        31.65753        -0.03985
C         24.06558        30.94791         0.45972
C         25.29355        33.15361         0.18978
C         24.12416        33.85108         0.27682
C         25.40332        36.02469        -0.03814
C         24.04955        35.35536         0.09395
C         25.40234        37.53632        -0.29539
C         24.17486        38.23594         0.27328
C         28.23204         5.95396        -0.70802
C         27.00876         5.33866        -0.56252
C         28.27002         7.38348        -1.10342
C         27.01031         8.15524        -1.00896
C         28.30281        10.25025        -0.66902
C         27.11814         9.59726        -1.00099
C         28.34221        11.69078        -0.37840
C         27.13753        12.49204        -0.59731
C         28.23523        14.47092         0.34472
C         27.10682        13.83812        -0.36891
C         28.09275        15.88407         0.81110
C         26.91335        16.68620         0.33814
C         28.00290        18.75474         1.35698
C         26.85634        18.05633         0.62676
C         28.08847        20.20760         0.79756
C         26.75128        20.89280         0.92030
C         27.99154        23.11798         1.25783
C         26.71270        22.33606         1.21841
C         27.92409        24.58201         1.03141
C         26.71748        25.22708         1.13537
C         27.91131        27.42802         0.63400
C         26.66611        26.62545         0.65776
C         27.87174        28.79496         0.62283
C         26.57062        29.55132         0.84734
C         27.81004        31.67793         0.22100
C         26.59483        30.99033         0.38204
C         27.78320        33.13492         0.00883
C         26.57389        33.82423         0.03420
C         27.83299        35.85089        -0.49193
C         26.55582        35.26664        -0.16425
C         27.85007        37.99646        -0.27142
C         26.61747        38.28272         0.23677
C         30.65910         6.00789        -0.18031
C         29.45116         5.36151        -0.19524
C         30.86486         7.27315        -1.02800
C         29.58296         8.11544        -1.11873
C         30.68626        10.09439        -0.08154
C         29.57059         9.52239        -0.62527
C         30.61853        11.43700         0.60959
C         29.47609        12.28895         0.10865
C         30.58150        14.25763         1.29862
C         29.59367        13.80542         0.19738
C         30.64589        15.80538         1.40650
C         29.34677        16.59905         1.26600
C         30.55060        18.74911         1.26388
C         29.37221        18.07492         1.13247
C         30.57812        20.23033         1.45180
C         29.26135        20.96743         1.39743
C         30.44806        23.09123         0.89006
C         29.28070        22.41805         1.11793
C         30.37759        24.49688         0.32237
C         29.14979        25.29318         0.71721
C         30.38983        27.42166         0.42952
C         29.15914        26.67687         0.60942
C         30.38187        28.82771         0.39204
C         29.14328        29.59547         0.79879
C         30.23452        31.69063        -0.36721
C         29.04395        30.99222         0.23902
C         30.25060        33.14687         0.07756
C         29.05660        33.84920         0.05931
C         30.24475        36.10188        -0.00050
C         29.05964        35.30385        -0.06866
C         30.28719        37.55251        -0.00945
C         29.17786        38.40679         0.08043
C         33.03218         6.08294         0.51395
C         31.81960         5.48277         0.51783
C         33.33691         7.27888        -0.39240
C         32.05352         8.02439        -0.53373
C         33.18881        10.20832        -0.48348
C         31.99586         9.37591         0.09045
C         33.04925        11.66225        -0.03585
C         31.91849        12.20803         0.51723
C         33.17519        14.44892         0.82759
C         31.93607        13.60447         1.02743
C         33.09788        15.93283         0.80745
C         31.89829        16.55649         1.15488
C         33.12719        18.81930         1.11279
C         31.84822        18.02614         1.33774
C         33.05038        20.30494         0.92777
C         31.80266        21.00888         1.15279
C         32.93765        23.19775         0.83882
C         31.71261        22.38805         0.94109
C         32.88635        24.62021         0.43661
C         31.65957        25.28683         0.41489
C         32.84242        27.42573         0.17443
C         31.62270        26.70388         0.30700
C         32.82641        28.85601         0.13985
C         31.59063        29.53155         0.17927
C         32.82945        31.75709        -0.01183
C         31.56779        30.97634        -0.16058
C         32.79051        33.21313         0.16500
C         31.49972        33.84684         0.39789
C         32.79603        36.08427         0.21915
C         31.48699        35.42082         0.38993
C         32.76902        37.52206         0.11527
C         31.58822        38.19759         0.08765
C         34.47410         8.14152         0.08937
C         35.72688        10.20214         0.26856
C         34.49558         9.50997        -0.03461
C         36.02501        11.49343        -0.19349
C         34.15410        12.52583        -0.32753
C         35.55954        14.53133         0.00407
C         34.32020        13.82026         0.13396
C         35.51101        15.96452         0.08927
C         34.27704        16.65506         0.43889
C         35.42680        18.80756         0.17817
C         34.30338        18.09273         0.54897
C         35.47075        20.26117         0.38523
C         34.20281        20.98726         0.60593
C         35.36891        23.20034         0.05962
C         34.26031        22.45783         0.68006
C         35.34581        24.58564        -0.05804
C         34.10385        25.32282         0.16791
C         35.27527        27.49074        -0.30457
C         34.05857        26.71629         0.00371
C         35.27634        28.93814        -0.01923
C         34.07970        29.58977         0.13579
C         35.31886        31.81207         0.13905
C         34.06893        31.03671         0.59065
C         35.24354        33.22415         0.13037
C         34.00475        33.92606         0.20800
C         33.97344        35.36937         0.22805
C         36.99035        12.43022         0.18761
C         37.99870        14.63575        -0.15714
C         36.83788        13.85023        -0.06141
C         37.94160        16.04256        -0.33679
C         36.67990        16.69943        -0.20628
C         37.86125        18.92128        -0.61874
C         36.55401        18.15032        -0.57477
C         37.85778        20.30011        -0.63020
C         36.67114        21.01843        -0.09364
C         37.79249        23.21149        -0.77089
C         36.51198        22.45331        -0.45541
C         37.78417        24.65370        -0.54063
C         36.57519        25.29375        -0.33921
C         37.83216        27.49261         0.02659
C         36.57335        26.77306        -0.41142
C         37.74179        28.97910        -0.23859
C         36.54648        29.66054        -0.11513
C         36.47974        31.10695        -0.15196
C         39.12153        16.78279        -0.60089
C         40.30326        18.90312        -0.96857
C         39.12120        18.19803        -0.76876
C         40.29260        20.35642        -1.35012
C         39.05465        21.07672        -0.87600
C         40.28638        23.22903        -0.84768
C         39.05924        22.45919        -0.81014
C         40.26358        24.60923        -0.77994
C         39.04919        25.38763        -0.60229
C         39.06930        26.75675        -0.44476
C         41.54834        21.12758        -1.03023
C         41.53260        22.46695        -0.86544
O         18.42161         8.49920         2.94503
O         27.86099        36.98685        -1.27847
O         32.88044        13.82619         2.12556
O         21.94992        19.28582        -2.84853
O         15.80694        27.71340        -2.00024
O         11.31329        18.50468        -2.30511
O         35.91833        27.22532        -1.63169
O         24.15401        20.30337        -1.59652
O         32.71862        18.44087         2.45706
O         25.80175        14.36246        -2.26851
O         15.48111        23.17299        -3.10348
O         23.76979        35.79666         2.47374
O         27.77121        14.77315         1.71063
O         18.00296        37.12061         2.81499
O         19.35718        12.83183        -2.42724
O         17.38116        14.34920        -2.31225
O         15.45715         9.89714         3.25934
O          9.79103        26.10318         0.09626
O         22.97872        14.25277        -2.97445
O         15.92845        26.03220         1.24000
O         36.86038        22.76193        -1.83367
O          8.59838        16.42658         0.12955
O         33.99226        31.05642         1.96325
O         25.18942        10.25477        -2.45699
O         19.86697        31.24306         2.69759
O         12.81813        16.20310        -1.82488
O         27.74425        18.75497         2.70685
O         33.84143        22.99690         1.97696
O         28.91612         7.81149        -2.38566
O         17.69705        27.83957         2.10096
O         11.09331        22.86786        -3.18501
O         32.47863        31.23037        -1.32705
O         15.02521        18.23042        -2.67787
O         35.11690        11.98897        -1.18147
O         29.87257        16.22421         2.57701
O         16.74516        20.88869        -3.25916
O          7.87307        24.78158        -2.71077
O         27.29593        22.68853         2.50873
O         11.30370        25.50936        -3.03832
O         23.71374        27.15670         2.43814
O         31.39857        34.64805         1.61985
O         36.52120        20.74612         1.33890
O         19.46157        34.60673         3.02666
O         23.73128        12.58958         0.32135
O         21.71304        16.56655        -2.97146
O         29.82959        20.60454         2.66890
O         16.97526        33.28247         2.74965
O         25.87218        26.59592        -0.63117
O         30.17636        14.27311        -1.05375
H         29.63908        13.92419        -1.79716
O         24.23966         7.79701        -2.72750
H         24.75553         8.44043        -3.26679
O         30.37278        11.13070         2.02218
H         30.24853        11.99844         2.49700
O         25.47914        28.96308        -1.21576
H         25.81990        28.09441        -1.55364
O         13.09741        19.98802        -3.34199
H         13.77705        19.30209        -3.54645
O         14.90620        17.55163         0.93730
H         15.12703        16.76968         1.48724
O         22.33878        33.51772         2.72742
H         21.73229        33.92148         3.38669
O         29.98192        31.70930        -1.80881
H         30.86610        31.68467        -2.24656
O         22.04740        22.57640         2.14859
H         22.47911        22.84675         2.98580
O         15.96849        35.62225         2.93581
H         16.42266        35.02860         3.57608
O         14.41904        13.66064        -1.68571
H         14.14748        14.43450        -2.22731
O         25.32992        24.32081         2.90464
H         26.12837        23.82312         3.21339
O         25.34223        37.68141        -1.73548
H         24.72710        36.98933        -2.06919
O         37.83533        27.35527         1.49323
H         38.61233        27.83996         1.84293
O         11.88527        29.77095         0.87374
H         12.68048        30.16223         1.29827
O         24.09163        38.29437         1.71119
H         24.15418        36.65611         2.76363
O         20.74361         9.11899         2.39742
H         20.04140         9.16661         3.09587
O         25.26048        31.58725        -1.51084
H         25.38751        30.63256        -1.75137
O         30.12423        13.74032         2.55587
H         29.61151        14.46600         2.99893
O         36.10310        18.14303        -1.99723
H         36.72661        17.57162        -2.49535
O         28.41084        20.11806        -0.61553
H         27.58062        20.02361        -1.12950
O         22.83241        23.23038        -1.32185
H         22.59182        22.81266        -2.17687
O          5.68701        19.99710        -0.86634
H          6.42999        19.46700        -1.22622
O         23.37298        35.63533        -1.17675
H         22.72635        34.89529        -1.32599
O         32.23903         9.20937         1.52016
H         31.62678         9.82044         2.00748
O         13.62038        33.74231        -2.07456
H         14.46864        33.34857        -2.36818
O         20.39659         7.84598        -1.00257
H         20.95969         7.30374        -1.59541
O         14.88792        25.75830        -3.37996
H         15.56196        26.46247        -3.50718
O         10.23742        14.12420        -0.66749
H         10.51727        14.47748        -1.53934
O         33.09673        10.16466        -1.91665
H         33.87967        10.64194        -2.27225
O         23.57120        20.11696         1.94230
H         24.14041        20.19796         2.73673
O         33.77671         6.70337        -1.65491
H         32.96760         6.52691        -2.19572
O         25.80451        11.38636         0.90335
H         25.00218        11.81916         1.28926
O         11.96792        33.79290         1.19535
H         11.15850        34.24338         1.51503
O         22.12586        33.25329        -0.90990
H         22.65693        32.71909        -1.54143
O          6.86819        23.81524         1.88254
H          6.17308        24.22679         2.43860
O         26.37706        29.57912         2.28769
H         27.22910        29.87630         2.68761
O         19.66008        18.39739        -3.55625
H         20.58668        18.37369        -3.89409
O         25.58417        23.26250        -0.64647
H         24.67371        23.36510        -1.02689
O         29.25199        29.79820         2.27065
H         29.70807        29.01612         2.65078
O         23.06432         8.55124         1.49220
H         22.43848         8.94858         2.14627
O         11.32612        32.19151        -2.96413
H         12.11347        32.78744        -3.01365
O         40.20583        20.34473        -2.83133
H         39.28870        20.08914        -3.06838
O         13.49777        19.78404         0.29928
H         13.90735        19.11449         0.89686
O         31.17542         6.76089        -2.35897
H         30.34469         6.87090        -2.89045
O         30.19506        24.25762        -1.12497
H         30.14930        25.13130        -1.56916
O         11.87625        12.03994        -0.25507
H         11.05600        12.49615        -0.57071
O         18.82305        16.25516         0.44332
H         18.84679        17.18397         0.75701
H          5.82476        19.24737         2.12178
H          4.05421        20.99633         1.01502
H          4.12467        23.43335         1.00458
H          5.41873        25.65121         0.57342
H          8.81439        15.19173         3.24078
H          7.77445        17.82328         3.07907
H          6.20940        27.65959        -0.77007
H          7.46991        29.79173        -1.12385
H         10.78103        10.87984         3.26619
H          9.84335        13.18384         3.25276
H          8.80094        31.86469        -1.45984
H          9.97779        33.94885        -1.03516
H         12.78098         6.32379         2.21444
H         11.78026         8.63310         2.90199
H         11.28815        36.09108        -0.77552
H         12.60950        38.16110        -0.82899
H         14.77519         5.04110         1.55302
H         14.65038        39.37038        -0.11942
H         17.27129         4.88971         1.23457
H         16.90632        39.35383         0.72063
H         19.66185         4.69465         1.06362
H         19.37951        39.25240         0.78162
H         22.17887         4.54647         0.63292
H         21.73191        39.26511         0.79622
H         24.52133         4.35739        -0.22395
H         23.93672        39.20428        -0.22323
H         26.97068         4.29550        -0.21192
H         26.48171        39.01542         1.04319
H         29.36182         4.38748         0.31240
H         29.35011        39.44402         0.40584
H         33.86944         5.64775         1.08096
H         31.67377         4.56154         1.10465
H         33.72372        38.06735         0.10095
H         31.59941        39.29723         0.06506
H         35.40058         7.61829         0.37475
H         36.48210         9.65935         0.85719
H         36.17565        33.81214         0.13078
H         34.92918        35.91120         0.16423
H         37.89134        12.10010         0.72513
H         38.98063        14.14084        -0.16166
H         38.67878        29.55188        -0.33589
H         37.36962        31.65702        -0.50212
H         40.07788        16.24381        -0.67072
H         41.25308        18.35043        -1.03710
H         41.21942        25.15589        -0.79436
H         40.03024        27.29514        -0.47713
H         42.50401        20.58175        -1.03233
H         42.47321        23.01649        -0.70691
