         260
 CSIRO Nanostructure Databank - Neutral Graphene Oxide Data Set
C         30.37245        31.83214         0.43318
C         30.26942        32.96487        -0.08529
C         30.27048        35.95723        -0.79082
C         30.35058        37.19572        -0.82663
C         30.37001        40.32349        -0.44967
C         30.08980        41.45001         0.09065
C         32.87653        29.53167         1.96523
C         31.69073        29.88938         1.57490
C         32.75151        31.90324         0.71674
C         31.46060        31.08066         0.94323
C         32.68992        33.18359        -0.05608
C         31.42261        33.55942        -0.87726
C         32.67580        35.86675        -1.23490
C         31.36643        35.05426        -1.15894
C         32.66415        37.34977        -1.06101
C         31.48891        38.07460        -0.84752
C         32.66254        40.29509        -0.93540
C         31.46208        39.51036        -0.74888
C         32.70347        41.68693        -1.07089
C         30.80995        42.58412        -0.30533
C         32.56070        44.15522         0.37717
C         31.43685        43.62652         0.41321
C         35.71778        28.39986         3.04741
C         35.38871        29.65264         2.40655
C         34.12834        30.03966         1.84189
C         35.29245        32.11043         0.77673
C         34.09983        31.16101         0.76046
C         35.22126        33.25779         0.03489
C         33.97222        33.85277        -0.44680
C         35.19069        35.86444        -1.29628
C         33.94641        35.13696        -0.93226
C         35.18497        37.35559        -1.43855
C         33.95490        38.07381        -0.96804
C         35.20762        40.36091        -1.10571
C         33.95757        39.57879        -0.89004
C         35.22223        41.69145        -0.75778
C         33.93575        42.45020        -0.79984
C         35.14235        44.32908         0.62737
C         33.90055        43.84388        -0.07834
C         35.40121        45.80915         0.50519
C         38.07651        27.85806         2.41782
C         36.80353        27.80832         3.08955
C         38.37476        29.16660         2.09773
C         36.51406        30.42405         2.18265
C         37.94649        32.07828         0.78867
C         36.57362        31.77943         1.55464
C         37.67152        33.05121        -0.36772
C         36.49215        34.07103        -0.06501
C         37.71772        36.03149        -0.95010
C         36.50608        35.12243        -1.19462
C         37.75566        37.43140        -1.37914
C         36.46942        38.14327        -1.60595
C         37.75366        40.39850        -1.47191
C         36.44118        39.65682        -1.53318
C         37.78867        41.75636        -0.80576
C         36.46277        42.41283        -0.46096
C         37.72704        44.44567         0.05601
C         36.43284        43.69316         0.02931
C         37.83619        45.95248         0.18316
C         36.47049        46.41744         0.46713
C         40.82011        25.40558         2.55194
C         39.67616        25.83242         2.63993
C         40.73223        27.62776         0.97156
C         38.65497        26.59343         1.85851
C         40.75138        29.11603         1.08073
C         39.48813        29.87333         1.37048
C         40.24912        31.59188        -0.44359
C         39.24600        31.25723         0.70754
C         40.18010        32.96314        -1.10858
C         38.92211        33.75414        -0.97065
C         40.24719        35.98066        -1.35294
C         39.03283        35.26303        -0.93260
C         40.24093        37.38383        -1.27610
C         38.97600        38.08698        -1.39988
C         40.22418        40.02442         0.14648
C         38.95889        39.52178        -1.84606
C         40.09760        41.50402         0.29476
C         39.00500        42.23916        -0.04944
C         40.06490        44.30582         1.08804
C         38.88786        43.62240         0.48469
C         40.10573        45.79216         1.20681
C         39.08677        46.59646         0.69048
C         40.41947        48.59608         0.28649
C         39.29765        47.99887         0.46291
C         43.34498        25.16682         1.87363
C         41.92360        25.39024         1.52736
C         43.10905        27.56741         0.63157
C         41.94884        26.89618         1.02275
C         42.82300        28.74624        -0.28926
C         41.97105        29.79709         0.44721
C         42.82524        31.55055        -1.04471
C         41.57639        30.88107        -0.54663
C         42.78061        33.00099        -1.37802
C         41.45355        33.68475        -1.52249
C         42.73360        35.80708        -0.43496
C         41.42251        35.19463        -1.73752
C         42.75720        37.32109        -0.71190
C         41.53439        38.12978        -1.02518
C         42.56939        39.99716         0.53663
C         41.51855        39.59788        -0.54157
C         42.60472        41.30662         0.98030
C         41.26107        42.05492         1.13910
C         42.62910        44.28470         1.23694
C         41.36103        43.55931         0.97877
C         42.56739        45.72996         1.60612
C         41.32051        46.34549         1.77004
C         42.65864        48.52451         0.55831
C         41.57809        49.30628         0.27197
C         44.37375        25.71476         1.47195
C         45.60615        27.54953        -0.01786
C         44.49278        27.04309         0.84626
C         45.36959        28.67485        -1.02864
C         44.04720        29.38268        -0.95765
C         45.33515        31.59613        -1.06259
C         44.00087        30.86436        -1.16086
C         45.24628        33.08170        -1.35995
C         44.05374        33.76994        -1.26806
C         45.18811        35.86614        -0.59933
C         44.03135        35.16623        -0.88942
C         45.13960        37.12324         0.21640
C         43.85659        37.88230         0.12376
C         45.40197        39.95273         1.43363
C         43.57456        39.00441         0.85533
C         45.18361        41.40963         1.30407
C         43.81261        41.95079         1.75904
C         45.12167        44.36050         1.65924
C         43.84876        43.52766         1.68539
C         44.99558        45.84046         1.34054
C         43.78358        46.50992         1.41848
C         43.66796        47.89894         1.03140
C         47.77458        27.35684        -1.11180
C         46.89655        26.93934        -0.35626
C         47.92654        28.65293        -1.78520
C         46.57613        29.39811        -1.65709
C         47.82125        31.66476        -1.82467
C         46.52388        30.89731        -1.73541
C         47.80084        33.16199        -1.65325
C         46.47800        33.85917        -1.51476
C         47.76591        36.02286        -0.78588
C         46.46206        35.33001        -1.08697
C         47.75625        37.32461        -0.04683
C         46.46213        37.84395         0.55858
C         47.75696        40.02895         1.02166
C         46.46523        39.30002         0.87732
C         47.76244        41.51923         0.99779
C         46.44089        42.22542         1.12151
C         47.73921        44.44071         1.05834
C         46.47029        43.67878         1.48552
C         47.38889        45.84032         0.76524
C         46.27937        46.34337         1.00848
C         50.41810        28.83862        -1.20109
C         49.22390        29.43897        -1.80628
C         50.24642        31.70940        -1.62417
C         49.12035        30.92547        -1.70479
C         50.16703        33.00351        -0.88905
C         49.01699        33.90492        -1.19212
C         50.33711        35.87276        -0.44079
C         49.01527        35.20507        -0.78094
C         50.25639        37.23472         0.23448
C         49.06511        37.88083         0.43017
C         50.30550        40.09224         0.90278
C         49.04013        39.28051         0.94577
C         50.20569        41.52570         0.34500
C         48.90386        42.21979         0.73203
C         51.38850        44.74952         1.72142
C         48.78161        43.65609         0.32502
C         51.23989        29.37107        -0.37696
C         52.32564        31.26532         0.31737
C         52.38076        29.91684         0.12978
C         52.42936        32.53823         0.25768
C         51.28653        33.44960         0.02141
C         52.37792        35.66119         0.71539
C         51.37705        34.90834         0.21377
C         52.52672        36.94051         0.87625
C         51.53386        37.86335         0.68173
C         52.70958        40.23106         0.48813
C         51.59729        39.32526         0.89302
C         52.57176        41.46822         0.40873
C         51.48293        42.35618         0.65772
C         51.47174        43.61277         1.17097
O         44.38927        28.48640        -2.08332
O         44.34518        39.24539         1.99794
O         34.02923        43.74265        -1.49786
O         39.24946        33.11720        -2.23050
O         40.46976        30.52937        -1.41495
O         37.84635        41.62672        -2.25683
O         40.93063        41.80319         2.53359
O         47.51014        44.04014         2.42530
O         39.07792        32.38197         1.63013
O         48.64738        28.78989        -2.99143
O         44.42093        44.06618         2.90670
O         36.34245        38.95281        -2.81948
O         42.10056        33.09447        -2.70088
O         32.61929        33.17298         1.41167
O         31.95240        35.38345        -2.43253
O         42.24441        35.41002         0.67725
O         47.89214        32.56794        -2.99214
O         48.39242        39.46011         2.24917
O         39.07512        43.66320         1.95431
O         42.57886        37.87743        -2.04086
O         39.54084        27.01151         0.66438
O         34.15599        38.73745         0.33001
O         51.06479        39.87303         2.12999
O         37.70150        30.13855         2.89883
O         45.80812        36.96279         1.51310
O         40.56940        29.77794         2.39478
O         50.07169        32.81707         0.58513
O         46.36881        34.93752        -2.49028
O         42.19789        43.97029        -0.14203
O         45.57141        41.91198        -0.01957
O         50.97568        36.12874        -1.80182
O         34.99154        36.50678        -2.61089
O         49.36581        44.06706        -0.66755
O         31.56648        42.39045        -1.54045
O         37.95900        45.31403        -1.10941
O         45.45258        28.00831         1.35050
O         39.76295        39.93035        -2.66129
O         46.20477        30.08305        -2.88235
O         38.47037        35.81429         0.27730
O         47.79448        37.30178        -1.52852
O         35.04275        43.94505         1.98918
H         35.77185        44.35164         2.50162
O         50.51957        37.41191        -2.27230
H         49.56552        37.26045        -2.50795
O         37.15272        32.14534        -1.36120
H         37.09501        32.63591        -2.21676
O         36.60299        32.67810         2.70459
H         37.43294        32.48067         3.19601
O         41.20856        47.49348         2.45860
H         42.08215        47.78910         2.78661
O         36.55902        34.81582         1.14972
H         36.50249        34.20171         1.92572
O         41.96827        28.25745        -1.34175
H         42.54132        27.95594        -2.08406
O         41.80589        40.46861        -1.63649
H         42.21345        39.94000        -2.35798
O         34.15428        30.48456        -0.52157
H         35.06851        30.17685        -0.69269
O         41.52570        24.54148         0.48303
H         40.68219        24.86988         0.10799
O         45.67836        31.51948         0.36028
H         44.86698        31.64179         0.90234
O         42.79887        30.40577         1.44896
H         42.25332        30.50417         2.26792
O         37.65769        25.78885         1.35495
H         38.00201        24.89706         1.15023
O         39.52667        39.26823         0.81300
H         40.48177        40.93253         2.60435
O         50.15866        41.39445        -1.08768
H         50.05607        42.30257        -1.46310
O         43.66532        41.60227         3.13229
H         42.73608        41.78666         3.40311
O         36.70767        34.48068        -2.47209
H         36.27302        35.04191        -3.15659
O         51.45066        31.35096        -2.10397
H         51.38670        30.51037        -2.60283
O         31.55247        32.86555        -2.10409
H         31.05946        33.34161        -2.80450
O         41.98982        35.56463        -2.92244
H         42.42878        34.76397        -3.31088
