         294
 CSIRO Nanostructure Databank - Neutral Graphene Oxide Data Set
C          2.15702         1.84032         2.48004
C          2.26869         3.20030         2.73296
C          2.93662         1.16684         1.52566
C          2.98436         4.06777         1.80189
C          3.10852         6.03621         3.32125
C          3.27695         7.40663         3.54906
C          3.32044         5.48233         2.06636
C          3.74932         8.25555         2.51081
C          2.20786        11.28804         2.47306
C          1.89510        12.50719         1.87821
C          3.32253        10.57750         2.01125
C          2.73767        13.05458         0.89465
C          1.38962        15.27294         0.66160
C          1.39089        16.64296         0.58792
C          2.71283        14.56274         0.73697
C          2.59885        17.36831         0.34044
C          2.73811        18.78899         0.46830
C          3.99215         1.85111         0.85088
C          3.87915         3.32798         0.77244
C          5.10308         1.19470         0.34762
C          4.95715         4.11998         0.08372
C          3.79855         6.35175         0.91086
C          4.16098         7.78205         1.28064
C          4.94162         5.62557         0.11579
C          4.94140         8.55155         0.22024
C          4.03781        10.97368         0.86437
C          3.80825        12.28709         0.37836
C          5.23068        10.10850         0.45242
C          4.76749        12.93263        -0.62844
C          3.71290        15.12634        -0.25597
C          3.70973        16.64655        -0.27746
C          4.96820        14.41408        -0.40092
C          5.06309        17.30442        -0.15665
C          3.83312        19.45927        -0.00346
C          4.99788        18.74769        -0.65857
C          6.40966         1.94865         0.24616
C          6.17908         3.34226        -0.41462
C          7.48601         1.23054        -0.54641
C          7.48892         4.12782        -0.34072
C          6.22626         6.37283        -0.33199
C          6.34580         7.84573         0.19595
C          7.51353         5.61530         0.03789
C          7.39715         8.52194        -0.69514
C          5.93295        10.68533        -0.81657
C          6.09169        12.18039        -0.60029
C          7.25240         9.96136        -1.11659
C          7.38469        12.88765        -0.88500
C          6.17552        15.09416        -0.76236
C          6.20918        16.51204        -0.71747
C          7.35746        14.34606        -1.11018
C          7.44472        17.26751        -1.11982
C          6.33111        19.41917        -0.46703
C          7.47904        18.72691        -0.69192
C          8.43569         1.95021        -1.46240
C          8.60735         3.39642        -0.97818
C          9.75260         1.24245        -1.23864
C          9.78871         4.13545        -1.52396
C          8.77894         6.36712        -0.47298
C          8.73061         7.83441        -0.81069
C          9.90485         5.58183        -1.07069
C          9.74183         8.44589        -1.49136
C          8.49735        10.71762        -1.42405
C          8.57451        12.08796        -1.30567
C          9.55602         9.83958        -2.11316
C          9.79265        12.82088        -1.68741
C          8.67831        15.02800        -1.07506
C          8.70962        16.49092        -0.75397
C          9.89385        14.33556        -1.63909
C         10.02781        17.25422        -0.61699
C          8.75841        19.40436        -0.73371
C          9.94790        18.74197        -0.87124
C         11.00024         1.90038        -1.10209
C         11.07686         3.42309        -1.04722
C         12.20996         1.22506        -0.98338
C         12.27319         4.02517        -1.79721
C         11.11236         6.26614        -1.60753
C         10.97024         7.71097        -2.03135
C         12.29118         5.55962        -1.67279
C         12.29802         8.47412        -1.88684
C         10.89191        10.58393        -2.22471
C         10.77645        12.05047        -2.23809
C         12.26883         9.99354        -1.91090
C         12.62021        13.02409        -1.72234
C         11.19036        15.16485        -1.72411
C         11.23711        16.58632        -1.23529
C         12.54434        14.49597        -1.70520
C         12.40442        17.30378        -1.13950
C         11.21105        19.43856        -0.91651
C         12.39621        18.75083        -0.94333
C         13.49577         1.96943        -0.69028
C         13.56733         3.31565        -1.41920
C         14.79483         1.17169        -0.92119
C         14.82079         4.10178        -1.25296
C         13.56690         6.24692        -1.51540
C         13.56494         7.73866        -1.60558
C         14.73219         5.58131        -1.23287
C         14.80184         8.53847        -1.19542
C         13.44109        10.71733        -1.24629
C         13.39640        12.18748        -0.99358
C         14.51730         9.99046        -0.78770
C         14.33188        12.82479         0.06161
C         13.75192        15.16710        -1.19099
C         13.79076        16.69526        -1.16864
C         14.36694        14.43006         0.01328
C         14.59227        17.30776         0.00571
C         13.71941        19.49789        -1.00214
C         14.88442        18.73270        -0.39702
C         16.02178         2.00631        -0.57239
C         16.01437         3.41818        -0.68351
C         17.20753         1.36456        -0.19235
C         17.18011         4.15949        -0.42878
C         15.75898         6.21244        -0.31598
C         15.71965         7.74669        -0.24860
C         17.18527         5.67046        -0.57906
C         16.94199         8.48874         0.19571
C         15.58790        10.64695         0.10692
C         15.71655        12.18065        -0.16021
C         16.99736         9.98792        -0.04572
C         16.82465        12.78841         0.68723
C         15.68872        15.09157         0.36739
C         15.79099        16.45273         0.36145
C         16.78734        14.24479         0.91188
C         17.03618        17.17913         0.89390
C         16.11112        19.28785        -0.24897
C         17.23837        18.55897         0.29490
C         18.39317         2.09048         0.02302
C         18.37767         3.49888        -0.09931
C         19.64995         1.43337         0.36814
C         19.61207         4.26862         0.04638
C         18.22821         6.30215         0.37314
C         18.25982         7.80916         0.29267
C         19.57066         5.62101         0.18996
C         19.40763         8.54645         0.46606
C         17.95859        10.56930         1.01851
C         17.95287        12.08471         1.03510
C         19.34112         9.94944         0.85912
C         19.13318        12.73119         1.58486
C         18.09397        14.92299         1.21210
C         18.26533        16.29262         0.57755
C         19.26805        14.09187         1.52836
C         19.67601        16.92415         0.82436
C         18.47208        19.14324         0.40577
C         19.62176        18.44178         0.92668
C         20.82348         2.09420         0.35365
C         20.93227         3.53649        -0.07829
C         22.03554         4.28568         0.63915
C         20.83400         6.39986         0.27851
C         20.75297         7.90366         0.40233
C         22.01493         5.62281         0.74321
C         21.89163         8.68051         0.92719
C         20.42933        10.58482         1.41596
C         20.18523        11.85343         2.23724
C         21.72616         9.93846         1.40030
C         21.43242        12.62232         2.60806
C         20.39559        14.81181         2.16915
C         20.50159        16.30242         1.95815
C         21.51323        13.96168         2.63131
C         21.75062        17.04945         2.25355
C         20.73660        19.09467         1.37847
C         21.84270        18.37008         1.96110
O         13.72004        14.79130        -2.60465
O         17.55896        10.13514         2.31381
O         13.19501         8.07226        -3.00145
O          8.67505        15.52777         0.33182
O          8.54481         3.45334         0.47990
O          3.30342        15.87261        -1.44376
O         14.49362         3.42372        -2.55526
O          6.95375         8.86528        -2.04722
O          6.92308        12.55537         0.51299
O         19.84640        15.79639         3.15006
O         11.89157        12.59925        -2.84261
O          4.37963         4.90864        -1.01687
O          9.88518         5.91126         0.37715
O         17.09352        14.74676         2.27802
O          2.57208         3.79355         0.40463
O         15.86997         8.13880         1.13347
O         21.05837         7.25574        -0.89981
O         11.83231        10.24527        -3.29313
O          3.83980         9.59764         2.87824
O         10.33150        14.96647        -2.88968
O          9.59040         4.14802        -2.94828
H         10.46141         4.26562        -3.40457
O          5.31204        17.38122         1.28086
H          5.08504        16.51108         1.68036
O          6.21856         6.40147        -1.76201
H          5.51414         7.03298        -2.04216
O          4.76023        18.68231        -2.10056
H          4.52379        19.58069        -2.41280
O          3.34150        15.02928         2.00712
H          2.80781        14.67699         2.75214
O          2.67819         6.47977        -0.02505
H          2.50080         5.56387        -0.36256
O         15.30870         5.69485         0.95704
H         16.05237         5.82204         1.60198
O          5.92366         3.05880        -1.79818
H          5.46853         3.84261        -2.18507
O          7.59801         5.55892         1.48104
H          8.47764         5.15906         1.68113
O         17.57912         6.02426        -1.91858
H         17.06687         5.48022        -2.55217
O         13.86978        12.44857         1.34993
H         13.36392        13.20060         1.73547
O         19.62762        11.38329         3.49472
H         18.77720        10.89900         3.27052
O          6.19672        10.26525         1.49457
H          5.78356        10.00228         2.34647
O         16.85724        17.37913         2.30856
H         16.90825        16.48655         2.73685
O         10.71901         7.59929        -3.47071
H         11.60299         7.64618        -3.91001
O          4.15582        12.91661        -1.93982
H          4.21708        11.99513        -2.29392
O          4.30339         8.34199        -1.05122
H          3.50463         7.76482        -0.91215
O         11.28246         3.77048         0.34264
H         10.41927         3.67893         0.81101
O          9.04741         9.66799        -3.45011
H          9.57011         8.93807        -3.86628
O          8.04360         1.88221        -2.85165
H          8.49333         2.62412        -3.32046
O         15.14692        10.44281         1.44278
H         15.94081        10.33085         2.04786
O          7.42607        17.28975        -2.58503
H          6.56861        17.69964        -2.84862
O         20.50066        16.64253        -0.33885
H         19.89914        16.29697        -1.04347
O         10.31276        17.20505         0.82617
H         11.17104        17.65765         0.97763
O         14.87991         0.72465        -2.27709
H         14.95528         1.52696        -2.84278
O         13.38804        14.79610         1.03332
H         13.52841        15.73067         1.33730
O         13.48526         2.24963         0.73400
H         12.70976         2.83928         0.91890
O         16.04879        12.43185        -1.53944
H         16.83544        11.87061        -1.75790
O          5.10220        10.53490        -1.97511
H          5.30799         9.65088        -2.36850
O         14.49776        17.14264        -2.34539
H         14.30023        16.48578        -3.05655
O          6.77192         7.90821         1.55714
H          7.51386         7.27939         1.72135
O         13.74569        17.41258         1.20262
H         14.33649        17.70928         1.93111
O         15.61603         8.64863        -2.41026
H         14.98646         8.81510        -3.15349
O         17.55379        10.24609        -1.34623
H         17.08409         9.65822        -1.99349
O          6.75725         2.09936         1.65759
H          7.70875         2.34865         1.70604
O         13.60066        20.79173        -0.40223
H         13.52276        20.67773         0.56676
O         12.10207         3.76634        -3.21589
H         13.00925         3.78284        -3.60895
O         17.81149         6.01187         1.75412
H         17.89327         6.83532         2.28302
O         21.30054         3.52062        -1.49321
H         21.33769         4.45402        -1.79418
O         18.15402        16.03868        -0.85692
H         17.84047        16.86141        -1.29182
H          1.50217         1.24018         3.12843
H          1.78972         3.63167         3.62213
H          2.90468         0.06921         1.48310
H          2.75135         5.40032         4.14403
H          3.04540         7.84273         4.52822
H          1.64486        10.92444         3.34203
H          1.05485        13.10228         2.26628
H          0.44925        14.71824         0.79135
H          0.45019        17.20178         0.71131
H          1.90436        19.35757         0.90863
H          5.11679         0.09367         0.32925
H          3.85501        20.55947         0.03425
H          7.47830         0.12952        -0.56405
H          6.37151        20.49535        -0.23474
H          9.75291         0.14163        -1.26831
H          8.75493        20.50487        -0.68306
H         12.21996         0.12415        -0.96121
H         11.21779        20.53903        -0.91264
H         14.77393         0.25965        -0.27385
H         13.94953        19.67634        -2.08910
H         17.22197         0.26828        -0.10031
H         16.27808        20.33034        -0.56309
H         19.61718         0.36447         0.62925
H         18.59668        20.19867         0.11288
H         21.75865         1.56362         0.59003
H         22.91315         3.71663         0.98340
H         22.86649         6.16072         1.18629
H         22.89375         8.23116         0.88755
H         22.60080        10.48790         1.77557
H         22.27789        12.04148         3.00681
H         22.42441        14.45079         3.00758
H         22.55646        16.54438         2.80556
H         20.77344        20.19436         1.36996
H         22.74693        18.93257         2.23523
