         284
 CSIRO Nanostructure Databank - Neutral Graphene Oxide Data Set
C        -11.01949         0.76256         1.52695
C         -9.80422         1.58001         1.23644
C         -8.49469         0.84919         1.14642
C         -7.27499         1.53080         0.59650
C         -6.14567         0.75736         0.01984
C         -5.10716         1.44969        -0.77942
C         -3.79059         0.69688        -0.95154
C         -2.53289         1.47264        -1.12093
C         -1.34835         0.82445        -1.25269
C         -0.09763         1.61940        -1.42362
C          1.20241         0.92326        -1.68857
C          2.41485         1.49115        -0.93021
C          3.79303         0.94506        -1.46301
C          4.96107         1.57147        -0.65126
C          6.29485         0.87662        -0.80284
C          7.48141         1.55995        -0.68183
C          8.73408         0.80423        -0.47974
C          9.86071         1.52139         0.33160
C         10.85100         0.68016         1.01934
C         -9.87969         2.95697         0.68887
C         -8.76773         3.63564         0.31340
C         -7.43004         2.98373         0.29950
C         -6.36793         3.69733        -0.47692
C         -5.18016         2.95241        -0.97762
C         -3.90598         3.71003        -1.27175
C         -2.59507         2.96855        -1.27990
C         -1.37449         3.75088        -0.82913
C         -0.04692         2.98390        -0.71792
C          1.18739         3.81327        -1.14855
C          2.46099         3.03407        -1.01748
C          3.71500         3.73992        -0.58663
C          5.01126         3.06464        -0.93142
C          6.28401         3.82591        -0.81353
C          7.61532         3.08712        -0.67075
C          8.40630         3.52092         0.56130
C          9.49535         2.81398         0.93812
C         -8.81705         5.04473        -0.27643
C         -7.57126         5.84411         0.07498
C         -6.23254         5.12023         0.02834
C         -5.17924         5.94925        -0.68342
C         -3.92632         5.24256        -1.15916
C         -2.63745         6.00930        -1.08793
C         -1.37358         5.25257        -0.79103
C         -0.10661         6.01673        -0.69658
C          1.20839         5.35595        -1.07573
C          2.32127         5.90012        -0.12375
C          3.67724         5.19168        -0.25464
C          4.93306         5.98855        -0.31484
C          6.29569         5.33018        -0.53805
C          7.17945         5.74770         0.63084
C          7.99397         4.72310         1.37129
C         -7.57556         7.16191         0.36319
C         -6.27159         7.84359         0.74368
C         -5.13894         7.34657        -0.15964
C         -3.81787         8.03861         0.07095
C         -2.63829         7.46785        -0.69783
C         -1.35943         8.16501        -0.37738
C         -0.09574         7.38403        -0.39870
C          1.10886         8.09287        -0.13241
C          2.39693         7.39819        -0.36304
C          3.68959         8.12440        -0.21663
C          4.93327         7.32448        -0.06264
C          6.23187         8.04007         0.29411
C          7.15327         7.04457         0.99352
C         -6.26905         9.35898         0.77550
C         -5.17457        10.10263         0.54650
C         -3.90616         9.57545        -0.09987
C         -2.60225        10.14537         0.44602
C         -1.42922         9.47851         0.33484
C         -0.15476        10.05698         0.91838
C          1.12864         9.41739         0.40557
C          2.32001        10.07388         0.62390
C          3.67896         9.60618         0.14073
C          4.77680         9.91172         1.13674
C          5.92025         9.21874         1.19387
C        -10.98632        -0.58092         1.57691
C         -9.84235        -1.36638         0.95939
C         -8.46665        -0.66414         1.29083
C         -7.34175        -1.36492         0.49435
C         -6.03358        -0.60105         0.26042
C         -4.84118        -1.35949        -0.05707
C         -3.69012        -0.71587        -0.50701
C         -2.46309        -1.44978        -0.83026
C         -1.16027        -0.66042        -0.97489
C         -0.07281        -1.33665        -1.85285
C          1.26508        -0.55464        -2.12195
C          2.53667        -1.32214        -1.66151
C          3.81571        -0.58190        -1.39941
C          4.99637        -1.25552        -0.78958
C          6.23947        -0.57098        -0.72860
C          7.43936        -1.31592        -0.51940
C          8.68983        -0.65126        -0.36429
C          9.81028        -1.38415         0.17621
C         10.87883        -0.66169         0.85049
C         -9.64824        -2.79102         1.43778
C         -9.07463        -3.79047         0.66417
C         -7.03992        -2.73363         1.07602
C         -6.16265        -3.55414         0.21479
C         -4.76808        -2.85976         0.19021
C         -3.90678        -3.49851        -0.99011
C         -2.51956        -2.81824        -0.96289
C         -1.47199        -3.60561        -1.73004
C         -0.09594        -2.84719        -1.87164
C          1.23520        -3.56786        -1.66041
C          2.37916        -2.71700        -1.11278
C          3.60142        -3.33462        -0.48958
C          4.91751        -2.62360        -0.48661
C          6.11451        -3.34832        -0.22436
C          7.36024        -2.72737        -0.34112
C          8.63976        -3.52983        -0.36460
C          9.77833        -2.76283         0.23962
C         -8.67428        -5.11648         1.26974
C         -7.40704        -5.78178         0.72426
C         -6.29769        -5.03253         0.03742
C         -4.93746        -5.68397        -0.00055
C         -3.85659        -5.09845        -0.89688
C         -2.50936        -5.74959        -0.69293
C         -1.34630        -5.09097        -1.34218
C         -0.02292        -5.82808        -1.33146
C          1.27896        -5.05383        -1.39446
C          2.48306        -5.67058        -0.67081
C          3.65235        -4.82287        -0.30199
C          4.72994        -5.35180         0.60898
C          6.05607        -4.68566         0.42474
C          7.30230        -5.48631         0.49408
C          8.48890        -4.93052         0.17920
C         -7.25989        -7.09400         1.01248
C         -6.11530        -7.90552         0.46553
C         -4.82616        -7.08140         0.47545
C         -3.50104        -7.81787         0.43178
C         -2.41023        -7.06996        -0.30983
C         -1.16316        -7.81702        -0.38958
C         -0.00818        -7.19625        -0.77756
C          1.34435        -7.86875        -0.72984
C          2.19040        -6.91496         0.18148
C          3.40677        -7.57386         0.86512
C          4.66141        -6.78579         1.07504
C          5.98211        -7.43571         1.50599
C          7.16258        -6.99092         0.63276
C         -5.87077        -9.25802         1.09548
C         -4.73714        -9.91791         0.81360
C         -3.65677        -9.27545        -0.03629
C         -2.31545        -9.95267         0.09215
C         -1.15772        -9.25094        -0.04642
C          0.13866        -9.90979         0.08463
C          1.29734        -9.27712        -0.19164
C          2.66653        -9.88156        -0.03306
C          3.40429        -9.09903         1.08509
C          4.78997        -9.66103         1.30015
C          5.90092        -8.94674         1.49944
O         -3.44364         7.76439         1.45104
H         -4.26590         7.64170         1.99054
O          9.91362         1.41586        -1.12313
O          1.30907        -6.45375         1.23158
H          1.87002        -6.28597         2.02618
O          1.88442        -7.90549        -2.02365
O          3.66627        -5.65757        -1.50934
O         -0.32626        -2.04863        -3.07971
O          3.66213        -6.90518         2.15918
O          2.52898        -2.73784         0.34092
O         -0.84986        -5.80505        -2.54452
O          1.42363        -0.43918        -3.54533
H          1.02615        -1.23849        -3.96454
O          3.75300         4.14640         0.83242
O         -6.84341         2.55929         1.58458
O         -3.24529         3.33676        -2.52169
O          2.15769         1.00128         0.39524
H          2.94248         1.19476         0.96644
O          6.12922         3.41091         2.00498
H          5.34799         4.02681         1.94214
O         -4.44688        -3.10300        -2.16463
O          0.15279         2.69519         0.68177
H         -0.31569         3.40045         1.19237
O         -6.28398         3.38936        -1.88313
O          7.20356         4.23959         2.53549
O         -6.46052        -8.12106        -0.92856
H         -5.74490        -8.68420        -1.33043
O          2.64340        -9.34974         2.28883
H          2.94975        -8.70205         2.96118
O         -8.93378         4.93935        -1.70212
H         -8.08508         4.61960        -2.07899
O         -3.31506         5.81687        -2.35131
O         -8.89654         1.48292         2.40736
O         -4.20233        -1.99418         2.32465
H         -3.26156        -1.83659         2.58524
O         -4.07922        -3.15247         1.43972
O          6.88284         8.53709        -0.88944
H          6.99952         7.76212        -1.49391
O         -8.53437        -4.93298         2.68242
H         -8.13733        -5.74254         3.06479
O          4.66705         1.41706         0.76709
H          5.35714         1.89219         1.29183
O          5.24662        -4.50987         1.66842
O          1.85158         5.75275         1.23090
H          2.23738         4.91849         1.58893
O         -0.18848         9.89974         2.35223
H         -0.35892         8.95619         2.55252
O         -4.04614         9.94291        -1.48358
H         -3.29294         9.53654        -1.97887
O         -0.56249        -0.69754         0.36604
H          0.15229        -0.01995         0.43416
O         -5.99816         7.44794         2.12944
H         -6.59232         7.96554         2.71210
O         -2.04366        -3.64697        -3.04781
H         -1.51157        -4.27669        -3.58327
O         -5.60065         7.06289        -1.50818
O          3.10734         7.85650        -1.55310
O          3.40163        -9.82543        -1.24517
H          2.98338        -9.12257        -1.83170
O         -2.00320         8.27806        -1.72290
O         -5.68135         4.98949         1.36546
H         -6.24917         4.38996         1.89865
O         -4.77096         0.80058        -2.03868
O          6.85622         5.93419        -1.73916
H          7.43466         5.25958        -2.16814
O         -3.04045        -7.92400         1.80315
H         -3.18847        -7.04386         2.21740
O          0.50634         1.65621        -2.73393
O         -4.66328        -5.96591         1.42614
O         -7.78728        -1.53661        -0.86588
H         -7.05460        -1.90721        -1.40899
O         -6.62593        -4.09556        -1.02993
O         -1.64041         4.42799         0.45088
O          3.56131        -1.22442        -2.69655
O          8.38948         3.50721        -1.82575
H          9.16509         2.89338        -1.89447
O          1.96602         3.43586        -2.32117
O          1.61284        -4.50766        -2.69816
O          6.27393        -6.99248         2.84552
H          5.41605        -6.89840         3.31447
O         -4.29311        -5.48609        -2.29638
O          3.94824        10.36729        -1.06505
H          3.58776         9.84041        -1.81465
O          5.67656         3.52066        -2.12028
O         -6.79361        -2.92563         2.35445
H         -7.18308        -2.19980         2.91064
O         -9.14571        -3.80041        -0.67436
H         -9.38208        -2.89240        -0.99703
O          8.96981        -3.71165        -1.79231
H          8.15024        -3.98435        -2.25714
O         -3.73707        -6.77023        -2.65841
H         -2.88872        -6.52183        -3.11065
O          3.94682         1.36465        -2.81218
H          3.43455         0.74518        -3.38414
O          1.47774         5.86340        -2.39352
H          1.85606         5.13479        -2.94072
O         -4.09210        -9.30346        -1.42425
H         -3.65847        -8.56038        -1.91035
O        -10.12781        -1.30963        -0.45623
H        -11.09803        -1.37842        -0.57510
O         -8.23257        -0.89128         2.69967
H         -8.52904        -0.06613         3.16745
O          6.92882        -7.51790        -0.67783
H          7.69179        -7.30144        -1.25137
H         11.65758        -1.26022         1.34572
H         11.58000         1.17599         1.67775
H         10.06776         3.12575         1.82666
H          8.88472         5.20069         1.84600
H          7.80070         7.40623         1.80917
H          6.70056         9.52063         1.91104
H          4.63001        10.77833         1.80053
H          2.28499        11.08290         1.06465
H         -0.12069        11.15907         0.72575
H         -2.61529        11.13674         0.92674
H         -5.23984        11.19549         0.67353
H         -7.18195         9.84615         1.15858
H         -8.51996         7.72843         0.40308
H         -9.73190         5.57302         0.09036
H        -10.86806         3.43738         0.62325
H        -11.92017         1.30430         1.85617
H        -11.88675        -1.13583         1.88352
H         -9.57357        -2.91916         2.52793
H         -9.52782        -5.83461         1.07951
H         -8.06525        -7.62260         1.55000
H         -6.65842        -9.71961         1.71131
H         -4.55898       -10.92442         1.22276
H         -2.28164       -11.03464         0.29117
H          0.14720       -10.95481         0.43310
H          2.58490       -10.95235         0.29716
H          4.84779       -10.76039         1.33988
H          6.84976        -9.47215         1.69315
H          8.11386        -7.42146         1.05256
H          9.39379        -5.55998         0.16169
H         10.61631        -3.31152         0.69408
