         429
 CSIRO Nanostructure Databank - Neutral Graphene Oxide Data Set
C          1.42949         1.97412        -0.88808
C          1.34809         3.37461        -1.02833
C          2.58926         1.35019        -0.45925
C          2.43029         4.20901        -0.71027
C          1.19610         6.29757        -1.11016
C          1.17473         7.66041        -1.30883
C          2.41342         5.61586        -0.89255
C          2.38414         8.42687        -1.26472
C          1.49903        11.33988         0.19840
C          1.81719        12.32125         1.12924
C          2.53393        10.64996        -0.44881
C          3.15424        12.69042         1.35367
C          2.41475        14.65027         2.88017
C          2.69995        15.85481         3.44272
C          3.46708        13.80233         2.29102
C          3.98802        16.49758         3.30291
C          4.19609        17.83271         3.75846
C          3.74145         2.10929        -0.09764
C          3.62125         3.58824        -0.08296
C          4.93382         1.50468         0.25090
C          4.86495         4.41852         0.13848
C          3.72005         6.36127        -1.11875
C          3.62654         7.87765        -1.03846
C          4.91070         5.81446        -0.35924
C          4.92932         8.63611        -1.29809
C          3.88705        10.91355        -0.19457
C          4.19924        12.02963         0.64309
C          4.94897        10.16550        -0.95068
C          5.52521        12.64282         0.58332
C          4.85021        14.45684         2.15893
C          5.00676        15.86074         2.56970
C          5.78459        13.89790         1.17230
C          6.17237        16.57634         2.18948
C          5.35485        18.51385         3.45783
C          6.36454        17.91984         2.64072
C          6.13078         2.25229         0.53639
C          6.13431         3.69948         0.36570
C          7.28489         1.61194         0.93325
C          7.32870         4.40293         0.37775
C          6.08909         6.53474        -0.32447
C          6.17069         7.91669        -0.73337
C          7.32759         5.86997         0.17137
C          7.42460         8.54344        -0.85853
C          6.29749        10.78794        -0.93979
C          6.52696        12.08011        -0.25139
C          7.51404         9.95842        -1.10829
C          7.73189        12.73355        -0.49498
C          6.95058        14.63570         0.83476
C          7.15189        15.96784         1.34134
C          7.93060        14.04976        -0.01225
C          8.28971        16.70573         0.94081
C          7.53383        18.62551         2.26683
C          8.49906        18.05374         1.42158
C          8.51859         2.38815         1.29693
C          8.57457         3.73053         0.60473
C          9.75427         1.56892         1.11806
C          9.80200         4.31399         0.26125
C          8.66403         6.51398        -0.11289
C          8.68080         7.83980        -0.74273
C          9.87987         5.68510        -0.20805
C          9.89393         8.41672        -1.10924
C          8.73008        10.58921        -1.25665
C          8.74947        12.08958        -1.41838
C          9.94592         9.83239        -1.38028
C         10.12723        12.67163        -1.24681
C          9.09922        14.79075        -0.39041
C          9.23406        16.11682         0.05084
C         10.21922        14.08342        -0.98566
C         10.35014        16.92921        -0.43594
C          9.68557        18.76866         1.05947
C         10.63725        18.23896         0.18105
C         10.95766         2.13661         0.71923
C         11.00703         3.53308         0.32572
C         12.15877         1.37352         0.68495
C         12.22709         4.09409        -0.07762
C         11.04484         6.23540        -0.71649
C         11.14062         7.63979        -1.10845
C         12.25186         5.39265        -0.77620
C         12.34064         8.23179        -1.46420
C         11.16419        10.47121        -1.62638
C         11.27173        11.90079        -1.50574
C         12.31826         9.62424        -2.10060
C         12.58008        12.51895        -1.52919
C         11.44560        14.72398        -1.12639
C         11.52067        16.17173        -1.07778
C         12.72540        13.94774        -1.07769
C         12.82917        16.82987        -1.18324
C         11.86260        18.87382        -0.13138
C         12.92422        18.23105        -0.82317
C         13.39892         1.98194         0.41787
C         13.43463         3.36669         0.01975
C         14.61818         1.27399         0.55639
C         14.68960         4.05086        -0.09966
C         13.58903         6.01928        -1.13270
C         13.63383         7.43545        -1.70263
C         14.78130         5.43028        -0.49418
C         14.89815         8.18138        -1.30832
C         13.67972        10.34779        -2.06529
C         13.73658        11.80535        -1.80932
C         14.96864         9.57682        -1.75758
C         15.01943        12.47810        -1.85485
C         13.90665        14.67117        -1.67642
C         13.91219        16.10183        -1.66201
C         15.06431        13.92683        -1.92490
C         15.06517        16.85327        -2.27273
C         14.16608        18.87427        -0.99909
C         15.24582        18.24147        -1.67113
C         15.84085         1.97004         0.56815
C         15.84975         3.38286         0.32209
C         17.09000         1.30444         0.71258
C         16.99780         4.18834         0.75549
C         15.96317         6.18383        -0.28804
C         16.01021         7.57779        -0.73456
C         17.09568         5.60379         0.35820
C         17.27871         8.28851        -0.63026
C         16.20916        10.33481        -1.52530
C         16.21513        11.73056        -1.80021
C         17.36903         9.61032        -1.15943
C         17.50481        12.42735        -2.02077
C         16.33921        14.61280        -2.13127
C         16.36039        16.06729        -2.26124
C         17.51971        13.89725        -2.13514
C         17.52372        16.75589        -2.44594
C         16.39804        18.92526        -1.98161
C         17.49542        18.24289        -2.74538
C         18.28431         2.02554         0.88188
C         18.20223         3.45528         1.29318
C         19.51563         1.45877         0.53447
C         19.45600         4.23479         1.71018
C         18.32647         6.30764         0.54130
C         18.40791         7.66784         0.02527
C         19.47235         5.69892         1.16678
C         19.60718         8.39989         0.21066
C         18.68521        10.26560        -1.29479
C         18.78868        11.68819        -1.78459
C         19.81016         9.68585        -0.49418
C         20.15668        12.41131        -1.71462
C         18.83708        14.55545        -2.29245
C         18.82989        16.06850        -2.44304
C         20.03594        13.93065        -1.69750
C         20.00278        16.82218        -1.97994
C         18.78453        18.93058        -2.43759
C         19.94504        18.26765        -2.02643
C         20.73477         2.16640         0.73331
C         20.71434         3.43089         1.39072
C         21.98531         1.57911         0.44269
C         21.92726         3.85596         1.92078
C         20.64378         6.47963         1.35914
C         20.72875         7.82626         0.85722
C         21.86545         5.98942         1.94421
C         21.96313         8.54638         0.98494
C         20.83803        10.63746         0.01635
C         21.06802        11.93463        -0.60946
C         21.98200        10.00128         0.81814
C         22.18255        12.69467        -0.25405
C         21.13325        14.69855        -1.33473
C         21.13301        16.15201        -1.50072
C         22.28248        14.07817        -0.68809
C         22.29289        16.91157        -1.13393
C         21.11400        19.00056        -1.70537
C         22.28896        18.34480        -1.28637
C         23.22578         2.15761         0.80498
C         23.21365         3.38823         1.56817
C         24.41373         1.51429         0.32425
C         24.37003         4.26780         1.80016
C         23.13150         6.49900         1.65046
C         23.17275         7.89734         1.30622
C         24.34456         5.70642         1.78763
C         24.37014         8.63684         1.54495
C         23.24595        10.73091         0.87743
C         23.28643        12.10296         0.48760
C         24.38800        10.03283         1.34944
C         24.48496        12.85001         0.66021
C         23.41101        14.84405        -0.36459
C         23.44465        16.26594        -0.61748
C         24.55172        14.23786         0.28287
C         24.59773        17.02568        -0.28428
C         23.45191        19.08469        -0.97806
C         24.60839        18.44897        -0.48459
C         25.65785         1.73102         0.92758
C         25.64179         3.66162         1.90658
C         26.93734         1.55015         0.41875
C         26.89082         4.30489         1.74969
C         25.59343         6.39804         1.82266
C         25.56778         7.88420         1.99121
C         26.83200         5.72997         1.81610
C         26.88655         8.63235         2.08682
C         25.59526        10.82348         1.62495
C         25.66195        12.21195         1.16084
C         26.90462        10.11690         1.92898
C         26.86922        12.89297         1.30303
C         25.69476        14.99018         0.58096
C         25.74705        16.39487         0.29924
C         26.80138        14.38116         1.41937
C         26.88483        17.16216         0.62131
C         25.77017        19.19289        -0.16301
C         26.91340        18.56756         0.36619
C         28.11263         2.21446         0.94754
C         28.13782         3.57766         1.49872
C         29.28664         1.54346         0.63056
C         29.37583         4.30149         1.51506
C         28.10683         6.44065         2.19263
C         28.14557         7.91760         1.84543
C         29.36113         5.69859         1.81212
C         29.31540         8.61185         1.56581
C         28.15320        10.79646         1.55183
C         28.12485        12.20638         1.41357
C         29.36219        10.07544         1.44074
C         29.35666        12.91406         1.27296
C         28.12849        15.06325         1.24927
C         28.06030        16.56047         1.35156
C         29.32650        14.37566         1.21574
C         29.35982        17.24255         1.04348
C         28.10796        19.31752         0.61225
C         29.33022        18.68219         0.87356
C         30.61638         2.10546         0.72444
C         30.66780         3.59629         1.14518
C         31.64413         1.51028        -0.13378
C         31.77494         4.29543         0.36163
C         30.51379         6.53088         1.89741
C         30.55798         7.88241         1.52702
C         32.24339         5.58176         0.96832
C         31.78381         8.59266         1.04824
C         30.58474        10.78835         1.30995
C         30.57273        12.20085         1.24174
C         31.94538        10.09276         1.44573
C         31.90660        12.93126         1.30731
C         30.58054        15.09677         1.09969
C         30.54217        16.53014         1.04989
C         31.81489        14.40167         0.94160
C         31.86684        17.24438         1.11895
C         30.55479        19.39933         0.85114
C         31.78903        18.73496         0.87965
C         32.86799         2.12877        -0.43224
C         33.09037         3.50239         0.15424
C         33.83952         1.54552        -1.23317
C         34.00869         4.34544        -0.71005
C         33.02878         6.43215         0.28928
C         32.98345         7.90613         0.47702
C         33.86007         5.86411        -0.82230
C         34.32753         8.61217         0.45596
C         33.04547        10.79200         0.62040
C         33.02512        12.20473         0.57621
C         34.19567        10.09628         0.19101
C         34.14956        12.92696         0.09850
C         32.96036        15.08326         0.49709
C         32.87256        16.56886         0.19404
C         34.15809        14.39407         0.12209
C         34.20428        17.28258         0.23343
C         33.00176        19.40758         0.75850
C         34.22987        18.69785         0.53970
C         35.10142         2.24462        -1.66817
C         34.98972         3.75493        -1.44406
C         36.32157         1.61084        -0.99517
C         36.04411         4.60572        -1.95343
C         35.18168         6.60915        -0.89700
C         35.31499         7.91264        -0.46963
C         36.25290         5.90747        -1.56665
C         36.52910         8.64411        -0.81949
C         35.33720        10.79959        -0.26739
C         35.29684        12.21450        -0.32977
C         36.54987        10.09356        -0.67078
C         36.49703        12.93849        -0.78696
C         35.31208        15.13709        -0.21121
C         35.35488        16.57301        -0.08523
C         36.52937        14.45718        -0.70282
C         36.60419        17.32154        -0.37503
C         35.44656        19.35645         0.67737
C         36.66511        18.77083         0.13954
C         37.59190         2.14252        -0.94457
C         37.89975         3.45348        -1.49091
C         38.64249         1.54736        -0.13440
C         38.82660         4.28457        -0.91118
C         37.64255         6.51122        -1.69269
C         37.63179         7.96158        -1.28796
C         38.69642         5.79852        -0.80038
C         38.92981         8.62006        -1.50422
C         37.72532        10.80524        -0.92679
C         37.78427        12.22722        -0.79682
C         38.96600        10.12917        -1.34981
C         39.00622        12.91907        -0.75834
C         37.84109        15.09890        -0.53894
C         37.92901        16.60246        -0.66721
C         39.02157        14.36029        -0.56266
C         39.13249        17.18894         0.04034
C         37.96667        19.32904         0.48283
C         39.14097        18.55369         0.47347
C         39.73862         2.27543         0.23035
C         39.85287         3.67807        -0.09197
C         40.97522         4.44473         0.22573
C         40.05971         6.47707        -0.82694
C         40.16503         7.86077        -1.22372
C         41.10493         5.78472        -0.22605
C         41.36164         8.57789        -1.20242
C         40.25945        10.77795        -1.10629
C         40.26216        12.20324        -0.84423
C         41.40562         9.99185        -1.18091
C         41.45677        12.91074        -0.70706
C         40.29257        15.02355        -0.33212
C         40.31350        16.42570         0.09235
C         41.46711        14.28957        -0.43510
C         41.49116        17.01232         0.61468
C         40.35738        19.11733         0.96407
C         41.50701        18.34750         1.03287
O         38.92167         9.48856        -2.68787
O          3.89214         4.19664         1.23815
O         26.14296         8.24871         3.30322
O         36.42677        18.41575        -1.30560
O         21.86093         4.91964         2.82979
O         31.10235         2.58504         2.05785
O         37.11180         3.91505        -2.56390
O         19.06447        15.19432        -3.60421
O         19.74756         9.47325        -1.93987
O          4.54368        13.51049         3.23850
O         32.37698        10.19195         2.77291
O         17.13749         3.82115         2.22074
O         12.88713         5.16462        -2.10300
O         14.51440         9.86710        -3.14505
O         18.25913        11.78362        -3.14509
O         31.96238         8.49699        -0.41621
O          2.15814         9.78924        -1.47884
O         10.50888        16.87347        -1.88267
O         36.30352        13.76867        -1.99036
O         31.72573         5.91851         2.21353
O          5.41736        10.94244        -2.13043
O         26.14093        10.74899         2.99145
O         25.62783         2.30383         2.21832
O         20.84916        10.68120         1.47448
O          8.04746         6.57395         1.23520
O          8.41873         2.69027         2.75120
H          7.64788         3.28734         2.86641
O         13.73742         7.29802        -3.15241
H         13.24254         6.47514        -3.38311
O         12.02418         9.38824        -3.50680
H         12.81901         8.92114        -3.86785
O         32.36149        16.70396        -1.16315
H         33.03815        16.35133        -1.77905
O         32.37643        17.06199         2.46898
H         31.75960        17.49831         3.09215
O         35.22817         2.02693        -3.09771
H         36.05102         2.49038        -3.38199
O         38.09848         6.44111        -3.06091
H         38.01223         7.32595        -3.47389
O         19.41150         4.35632         3.14952
H         18.46085         4.43692         3.39700
O         38.21274        16.80494        -2.09129
H         37.76266        17.64361        -2.35204
O         33.16554         6.10080        -2.09755
H         33.75319         5.79946        -2.82321
O         20.83575        12.10191        -2.96274
H         20.14310        12.09994        -3.66425
O         31.15768         4.56952        -0.91836
H         31.74686         5.15630        -1.46106
O         33.72208         3.35729         1.44682
H         33.07187         2.91005         2.03897
O         28.11551         6.42690         3.66919
H         27.36479         7.00705         3.95720
O         13.04682        13.86582         0.37918
H         12.30906        13.38353         0.81127
O         34.86271         8.51213         1.80937
H         34.25270         9.02374         2.39597
O         14.70626        17.05862        -3.67054
H         15.44861        17.56756        -4.08501
O          4.01960         6.04004        -2.53360
H          4.50127         6.81779        -2.91384
O          8.33626        12.39628        -2.78682
H          7.41979        12.06283        -2.90136
O         32.29511        12.88468         2.71589
H         32.37500        11.90632         2.95139
O         27.81802        16.87418         2.79690
H         28.58809        16.52723         3.29808
O          5.10671         8.53447        -2.74543
H          5.32581         9.44739        -3.06857
O         38.18427         5.99192         0.55345
H         38.81713         5.58008         1.17956
O         26.36330        14.62051         2.80819
H         26.58845        15.56201         3.02297
O         17.19403        18.36071        -4.19027
H         17.86378        17.82944        -4.67297
H          0.56093         1.36373        -1.17221
H          0.43386         3.80165        -1.46294
H          2.64078         0.25295        -0.41015
H          0.24551         5.74825        -1.06436
H          0.22780         8.19142        -1.47018
H          0.45412        11.10318        -0.03785
H          1.00445        12.83655         1.65720
H          1.37737        14.28709         2.89804
H          1.89450        16.42914         3.92472
H          3.40816        18.32001         4.35101
H          4.98938         0.40632         0.29026
H          5.50096        19.54183         3.81986
H          7.27971         0.52310         1.09029
H          7.67792        19.65332         2.63222
H          9.72129         0.50598         1.40117
H          9.85812        19.75902         1.50750
H         12.12680         0.31207         0.97133
H         12.03805        19.89082         0.25206
H         14.60172         0.19728         0.77777
H         14.29780        19.90583        -0.63782
H         17.13407         0.21375         0.57820
H         16.53176        19.97069        -1.66511
H         19.54592         0.43327         0.13962
H         18.80818        20.02694        -2.52871
H         21.99608         0.60781        -0.07285
H         21.10215        20.09740        -1.78248
H         24.33989         0.85894        -0.55542
H         23.44689        20.17668        -1.10919
H         27.08414         0.88408        -0.44454
H         25.77669        20.27927        -0.33513
H         29.19703         0.60919         0.05454
H         28.09375        20.40357         0.43938
H         31.38583         0.56549        -0.63705
H         30.53384        20.48977         0.70198
H         33.67968         0.52476        -1.61378
H         33.02221        20.50782         0.75170
H         36.15454         0.65168        -0.47872
H         35.48710        20.35890         1.12800
H         38.52541         0.50691         0.20180
H         37.99238        20.32658         0.94644
H         40.53203         1.81149         0.83481
H         41.81632         3.97953         0.75966
H         42.07745         6.27864        -0.08471
H         42.31403         8.03994        -1.09126
H         42.39606        10.46002        -1.09240
H         42.41982        12.38980        -0.78944
H         42.44131        14.77838        -0.30125
H         42.41422        16.42417         0.69935
H         40.36526        20.16688         1.29017
H         42.43797        18.78287         1.42189
