         720
 CSIRO Nanostructure Databank - Neutral Graphene Oxide Data Set
C         22.74606        27.26477         1.19302
C         22.83063        28.76788         1.12930
C         22.89671        31.61107         0.04360
C         22.96935        32.93016        -0.28450
C         23.42658        35.79189        -1.39472
C         23.47769        37.11709        -1.59631
C         23.21460        40.04704        -1.62137
C         23.34513        41.19730        -2.30551
C         23.46936        44.03420        -2.89959
C         23.49962        45.41568        -3.10763
C         25.33883        24.58401         2.02847
C         24.11599        25.24174         1.84783
C         25.28262        27.26459         1.21869
C         24.07544        26.58223         1.44215
C         25.24062        28.67205         0.74465
C         23.96895        29.43979         0.87074
C         25.34247        31.60709         0.51863
C         23.99854        30.96920         0.84982
C         25.35992        33.04685         0.26573
C         24.16640        33.70455        -0.08664
C         25.41689        35.91787         0.03923
C         24.08317        35.21006        -0.14445
C         25.47681        37.27688        -0.21375
C         24.16867        37.97527        -0.54380
C         25.70466        39.75593        -1.64667
C         24.39846        39.47968        -0.88194
C         25.82037        41.22934        -2.01571
C         24.61737        41.91267        -2.36030
C         25.96456        44.00660        -2.83915
C         24.63900        43.29113        -2.65793
C         25.87961        45.44525        -2.34208
C         24.68005        46.15246        -2.93452
C         25.96112        48.20993        -3.10388
C         24.74644        47.52821        -3.18443
C         27.99093        23.06320         1.97865
C         27.89017        24.56237         2.16689
C         26.55723        25.24039         1.82190
C         27.75406        27.38678         1.32907
C         26.53117        26.61406         1.43457
C         27.76976        28.74308         1.10186
C         26.52964        29.44124         0.73195
C         27.82840        31.58232         0.61980
C         26.50911        30.91964         0.68927
C         27.86287        33.07815         0.44056
C         26.58414        33.77520         0.33836
C         27.83361        35.89664         0.57578
C         26.61559        35.19380         0.32444
C         27.88617        37.29995         0.30641
C         26.73601        37.95640        -0.22617
C         28.12012        39.86155        -0.85550
C         26.87712        39.23323        -0.83950
C         28.28749        41.12516        -1.61808
C         27.06694        41.88473        -2.01438
C         28.37105        44.01073        -2.14915
C         27.17490        43.28157        -2.27437
C         28.39223        45.44017        -2.29230
C         27.19585        46.17835        -2.52173
C         28.48328        48.30875        -2.95385
C         27.17189        47.56136        -2.78550
C         28.39233        49.78775        -2.60045
C         30.44742        23.10156         1.58039
C         29.17213        22.42350         1.77460
C         30.32939        24.52981         1.21905
C         29.02699        25.23588         1.42477
C         30.09274        27.35253         0.55481
C         29.10121        26.73737         1.54974
C         30.20729        28.82514         0.93427
C         29.02755        29.48479         1.14585
C         30.26471        31.70242         1.23560
C         28.95258        30.96844         1.43044
C         30.29716        33.05784         1.06029
C         29.07167        33.81314         0.84734
C         30.20038        35.92029         1.58049
C         29.03394        35.18942         0.94159
C         30.18245        37.42986         1.28223
C         29.11425        38.01067         0.41737
C         30.48805        40.02176        -0.06941
C         29.24335        39.27201        -0.19163
C         30.64893        41.30616        -0.65610
C         29.61062        41.83733        -1.58008
C         30.81039        44.09672        -1.43524
C         29.71592        43.28488        -2.10042
C         30.77008        45.53002        -1.61973
C         29.63533        46.16472        -2.09341
C         30.88809        48.41458        -2.19431
C         29.56048        47.68076        -2.03427
C         30.82185        49.90673        -2.19049
C         29.46695        50.50950        -2.24437
C         33.07571        20.44825         1.61985
C         31.85175        21.05559         1.69805
C         32.95403        23.27422         1.52721
C         31.69099        22.47789         1.59643
C         32.86371        24.74018         1.17255
C         31.53378        25.35648         0.96023
C         32.56199        27.44560         0.00826
C         31.42342        26.65465         0.59109
C         32.62455        28.86217         0.56074
C         31.48352        29.50740         0.95641
C         32.80203        31.63872         1.47276
C         31.48020        30.88574         1.60954
C         32.75766        33.15145         1.65141
C         31.60666        33.80563         0.88005
C         32.72123        35.96258         1.50177
C         31.55551        35.29116         1.26254
C         32.70482        37.40129         2.04199
C         31.43494        38.21619         1.51747
C         32.44800        40.47111         1.23447
C         31.47769        39.55293         0.83439
C         32.78643        41.62109         0.51069
C         31.80833        42.08639        -0.40629
C         32.97424        44.27573        -0.17773
C         31.87686        43.48169        -0.81434
C         33.00047        45.74838        -0.36345
C         32.01209        46.30280        -1.32741
C         33.15359        48.58108        -0.97434
C         32.11149        47.75828        -1.63758
C         33.09821        49.99885        -1.13301
C         31.98931        50.65950        -1.66838
C         32.87897        52.86515        -1.05594
C         31.97120        52.10217        -1.71275
C         35.50093        19.03572         0.79044
C         35.50868        20.34105         1.43429
C         34.33683        21.14613         1.54123
C         35.38581        23.41117         1.12301
C         34.28606        22.59775         1.43295
C         35.28882        24.74481         0.53508
C         34.02294        25.45799         0.58565
C         35.05931        27.45280        -0.45575
C         33.89316        26.73392         0.10873
C         35.06694        28.96009        -0.32280
C         33.86247        29.62730         0.26456
C         35.22939        31.76565         0.59563
C         34.00100        30.98111         0.88086
C         35.23589        33.16168         0.91018
C         34.03785        33.86583         1.25453
C         35.25774        35.97888         1.29328
C         34.01684        35.26073         1.34161
C         35.27563        37.38896         1.55509
C         34.06706        38.08561         1.85625
C         35.37021        40.20241         1.83348
C         34.20069        39.45177         2.06759
C         35.35391        41.57111         1.23071
C         34.17474        42.18666         0.52773
C         35.37912        44.46356         0.68938
C         34.32660        43.61564        -0.01562
C         35.34274        45.86846         0.56093
C         34.22409        46.53164        -0.06092
C         35.18324        48.76602         0.51050
C         34.19276        47.93008        -0.26337
C         35.33646        50.16430        -0.00470
C         34.32377        50.84420        -0.84867
C         35.25125        53.07651        -0.18412
C         33.97470        52.25081        -0.22679
C         35.26974        54.46728        -0.39649
C         37.90273        18.75256         1.33966
C         36.64430        18.32129         0.62208
C         38.00334        20.27254         1.32110
C         36.82184        20.84428         1.73356
C         37.83932        23.30153         0.60504
C         36.73876        22.96379         1.34953
C         37.60382        24.41405        -0.41104
C         36.40042        25.29072        -0.07196
C         37.61429        27.47890        -0.41820
C         36.36433        26.69909        -0.55785
C         37.63108        28.86078        -0.14602
C         36.40213        29.71810        -0.41437
C         37.65238        31.75164         0.44521
C         36.40802        31.07639         0.28813
C         37.66586        33.12865         0.67540
C         36.46229        33.87673         0.81490
C         37.71618        36.02526         1.05525
C         36.48300        35.29882         1.05793
C         37.75751        37.39394         1.33244
C         36.52397        38.08529         1.60534
C         37.85573        40.19436         2.09456
C         36.56774        39.49548         1.76039
C         37.77886        41.77054         2.09300
C         36.56004        42.40918         1.43250
C         37.74421        44.58349         1.67092
C         36.53580        43.77558         1.21429
C         37.77081        45.99958         1.14615
C         36.53526        46.66862         0.87416
C         37.70762        48.85455         0.77887
C         36.51248        48.06336         0.71515
C         37.69662        50.22132         0.58568
C         36.39623        50.99721         0.64260
C         37.66400        53.15126         0.19563
C         36.46276        52.42659         0.13925
C         37.67984        54.56470         0.00134
C         36.44357        55.19881        -0.27634
C         40.36023        15.98833         0.33928
C         39.20537        16.63172         0.64127
C         40.49156        18.85344         0.78155
C         39.21426        18.04995         1.02739
C         40.43635        20.32943         0.61881
C         39.27540        21.11634         1.24761
C         40.17827        23.10022        -0.03209
C         39.08694        22.52401         0.56904
C         40.18017        24.53985        -0.40778
C         38.87912        25.24399        -0.54183
C         40.15002        27.39887        -0.05909
C         38.83451        26.69000        -0.17648
C         40.09298        28.85661        -0.33223
C         38.84701        29.54888         0.02875
C         40.22864        31.62857         0.54304
C         38.88573        30.90117         0.69835
C         40.24441        33.10310         0.79816
C         38.94106        33.84537         0.91554
C         40.24367        36.00919         1.02862
C         38.97241        35.32367         0.59487
C         40.25242        37.38687         1.17877
C         39.01449        38.13140         1.29657
C         40.29139        40.24904         1.42512
C         39.05607        39.52500         1.48655
C         40.27100        41.69560         1.41498
C         39.05673        42.43333         1.59496
C         40.25353        44.55635         1.25421
C         39.04156        43.82232         1.45528
C         40.21749        45.97975         1.11525
C         38.99484        46.68570         1.08382
C         40.24210        48.90457         0.65394
C         39.01135        48.19612         1.18567
C         40.22785        50.23227         0.36955
C         38.92687        50.95448         0.11446
C         40.21904        53.15277         0.45670
C         38.92128        52.42149         0.50566
C         40.21510        54.56430        -0.09500
C         38.91711        55.31245         0.06654
C         40.17148        57.42059        -0.02631
C         38.97019        56.71637         0.03674
C         42.78378        15.99665        -0.19033
C         41.60571        16.70144         0.15976
C         42.78489        18.81098        -0.24099
C         41.63366        18.11432         0.19955
C         42.71887        20.24963        -0.38451
C         41.48487        20.93742        -0.01552
C         42.67545        23.09735        -0.50160
C         41.37016        22.34016        -0.54387
C         42.73608        24.52571        -0.01277
C         41.43720        25.30357        -0.15772
C         42.70484        27.47396         0.13753
C         41.44410        26.66224        -0.14423
C         42.65383        28.86687        -0.45907
C         41.38595        29.58833        -0.56848
C         42.58050        31.87849        -0.54721
C         41.42478        31.02015        -0.11334
C         42.62689        33.30587        -0.08654
C         41.46357        33.87149         0.58530
C         42.76706        35.99414         0.88566
C         41.52344        35.21914         1.23184
C         42.74773        37.36235         1.13464
C         41.51409        38.09618         1.29225
C         42.77571        40.23155         1.17083
C         41.50272        39.50239         1.34661
C         42.75530        41.71168         1.08045
C         41.47904        42.44534         1.25298
C         42.80146        44.59065         1.42922
C         41.48925        43.84056         1.24201
C         42.76228        45.98893         0.84292
C         41.46124        46.70470         0.76101
C         42.70793        48.78316         0.02367
C         41.56490        48.21615         0.89559
C         42.70653        50.28887         0.09328
C         41.48558        50.97963         0.17994
C         42.71887        53.12675         0.26310
C         41.46296        52.39142         0.20609
C         42.73930        54.67078         0.33210
C         41.45793        55.36277         0.20443
C         42.67929        57.46874        -0.05212
C         41.43865        56.75192         0.03247
C         43.95458        16.67343        -0.47476
C         45.17507        18.81555        -0.89835
C         43.97802        18.08956        -0.53620
C         45.03709        20.23545        -1.25836
C         43.80585        20.96317        -0.89223
C         45.04415        23.14104        -1.23831
C         43.82476        22.42155        -0.90826
C         44.94160        24.60593        -1.41496
C         43.80131        25.31020        -0.75550
C         45.18954        27.48691        -0.69900
C         43.97073        26.72923        -0.30478
C         45.17783        28.96030        -0.71758
C         43.86880        29.61156        -0.75462
C         45.15679        31.81757        -0.56235
C         43.87154        31.14918        -0.82831
C         45.12192        33.19179        -0.12047
C         43.96029        33.92881         0.10768
C         45.21956        35.99671         0.63708
C         43.99238        35.30168         0.58437
C         45.28872        37.37037         0.99516
C         44.03534        38.04279         1.34292
C         45.33686        40.23437         1.22275
C         44.06608        39.54971         1.48399
C         45.34420        41.70129         1.25474
C         44.04495        42.44190         1.29331
C         45.33078        44.55887         0.92165
C         43.99710        43.85852         0.78368
C         45.34368        46.03840         0.97337
C         44.02760        46.79905         0.94707
C         45.25511        48.84340         0.31424
C         44.05080        48.18237         0.43328
C         45.28828        50.24944        -0.19377
C         43.93486        50.97324        -0.30614
C         45.23003        53.23634        -0.33087
C         43.93490        52.46904        -0.30995
C         45.22956        54.68567         0.02308
C         43.98575        55.39883         0.04413
C         43.89282        56.80581        -0.10024
C         47.62678        18.99210        -1.06370
C         46.44071        18.23668        -0.93307
C         47.62352        20.37845        -1.20624
C         46.34007        21.03978        -1.45304
C         47.50127        23.22278        -1.64670
C         46.28491        22.51534        -1.39791
C         47.43381        24.63168        -2.09111
C         46.16171        25.39392        -1.84221
C         47.52296        27.63208        -1.67207
C         46.25306        26.86272        -1.54030
C         47.56957        28.97234        -1.38408
C         46.34225        29.66988        -0.96523
C         47.66511        31.73447        -0.62699
C         46.35535        31.10438        -0.75654
C         47.70474        33.06080         0.02677
C         46.42263        33.80461         0.23645
C         47.78045        35.95410         0.58347
C         46.46629        35.29315         0.29852
C         47.76956        37.34781         1.12386
C         46.49670        38.08730         1.05512
C         47.78992        40.25211         0.93183
C         46.52448        39.52437         1.11096
C         47.75206        41.69632         0.67503
C         46.56636        42.40954         0.82940
C         47.69529        44.58050         0.24890
C         46.49968        43.85282         0.74805
C         47.87156        46.00851         0.72837
C         46.56909        46.78282         0.66394
C         47.78341        48.93814         0.61046
C         46.52246        48.14674         0.51409
C         47.77477        50.41377         0.31526
C         46.50484        51.07789        -0.08289
C         47.72219        53.22385        -0.15808
C         46.49909        52.46423        -0.22398
C         47.67743        54.59507         0.04907
C         46.46535        55.30719         0.19151
C         50.06907        20.62093        -0.86207
C         48.82318        21.19118        -1.18697
C         50.00266        23.31546        -1.77745
C         48.76717        22.58366        -1.55807
C         50.00335        24.71822        -2.11282
C         48.70506        25.40984        -2.28932
C         49.96130        27.68303        -2.41170
C         48.67391        26.92599        -2.28742
C         50.06216        29.21816        -2.33804
C         48.66850        29.88673        -1.93357
C         50.11075        31.91608        -1.19687
C         48.81132        31.14042        -1.08828
C         50.14742        33.13631        -0.27938
C         49.00497        33.77252         0.08554
C         50.31853        35.92742         0.71798
C         49.02065        35.12528         0.72131
C         50.29801        37.40186         0.71531
C         49.07613        38.12402         1.12822
C         50.30624        40.34810         0.94763
C         48.99872        39.59562         0.95759
C         50.21531        41.76169         0.41085
C         48.98082        42.36994         0.28437
C         50.18645        44.52821        -0.42578
C         48.90505        43.78852        -0.14097
C         50.18081        46.06715        -0.40250
C         49.00250        46.77777         0.09674
C         50.27664        48.97983         0.08544
C         49.12613        48.18089         0.63831
C         50.28222        50.40122         0.10453
C         49.04672        51.10408         0.06711
C         50.29470        53.22784        -0.24610
C         49.00839        52.49706        -0.49950
C         51.24809        21.33841        -1.01814
C         52.50353        23.26564        -1.98051
C         51.23866        22.64277        -1.54254
C         52.45810        24.71827        -2.42387
C         51.18578        25.45878        -2.31238
C         52.43244        27.59846        -2.34108
C         51.21560        26.89891        -2.34135
C         52.54837        28.99550        -1.89279
C         51.33693        29.72974        -1.66627
C         52.62383        31.68416        -0.98599
C         51.37027        31.04894        -1.18058
C         52.68375        33.06918        -0.44891
C         51.45244        33.78282         0.00315
C         52.68976        35.97012         0.05635
C         51.51205        35.25150         0.20645
C         52.68066        37.41654         0.11903
C         51.43927        38.09619         0.34638
C         52.70624        40.30838         0.05620
C         51.41531        39.57361         0.25138
C         52.78532        41.77689         0.45477
C         51.45898        42.48445         0.17775
C         52.71561        44.59814        -0.23613
C         51.45515        43.80986        -0.19304
C         52.66981        46.03235         0.07780
C         51.50758        46.77783        -0.33998
C         52.79224        48.93142         0.19351
C         51.52368        48.27809        -0.19378
C         52.86621        50.40942        -0.09832
C         51.52374        51.12411         0.00505
C         51.47314        52.53962        -0.09260
C         54.96569        23.44780        -1.83115
C         53.83197        22.80017        -1.51595
C         55.02722        24.68346        -2.73736
C         53.71803        25.46509        -2.56172
C         55.35027        27.79912        -2.13909
C         53.58431        26.81496        -2.73681
C         55.09312        28.93357        -1.44293
C         53.80413        29.62568        -1.56228
C         55.19822        31.66260        -1.24118
C         53.82596        30.98538        -1.16608
C         55.19925        33.15642        -0.94992
C         53.88825        33.89524        -0.72535
C         55.14898        35.91851        -0.12441
C         53.93122        35.27477        -0.22868
C         55.13547        37.34478         0.26812
C         53.90489        38.13885         0.04447
C         55.21377        40.26828         0.13348
C         53.97243        39.54505         0.07335
C         55.27366        41.67259         0.06990
C         53.98459        42.37114        -0.33493
C         55.23008        44.58103         0.32421
C         54.02701        43.89471        -0.22492
C         55.15902        45.98232         0.60595
C         53.81739        46.68900         0.78335
C         55.09426        48.87201         0.99577
C         53.88659        48.19488         0.57075
C         55.02690        50.31329         1.13600
C         53.98244        51.04574         0.68198
C         57.54182        24.77356        -2.47328
C         56.31736        25.44795        -2.40752
C         57.58486        27.47342        -1.48546
C         56.27409        26.73644        -1.62661
C         57.53250        28.74350        -0.74533
C         56.18127        29.41658        -0.48234
C         57.51870        31.54153        -0.28102
C         56.33242        30.92279        -0.56229
C         57.57796        33.02850         0.03489
C         56.40913        33.83188        -0.48368
C         57.68764        35.91856        -0.13176
C         56.38729        35.18996        -0.22362
C         57.70638        37.28183         0.49238
C         56.42069        38.05963         0.49428
C         57.80188        40.25424         0.35662
C         56.46938        39.50710         0.14887
C         57.70496        41.70778         0.57936
C         56.48654        42.40317         0.29377
C         57.65516        44.60509         0.72925
C         56.42499        43.85238         0.43208
C         57.55388        46.01063         1.14822
C         56.30594        46.69797         1.01528
C         57.45127        48.76340         1.76292
C         56.25714        48.12735         1.28333
C         58.75411        25.28653        -1.99588
C         60.02567        27.28821        -0.92096
C         58.89044        26.70231        -1.63913
C         59.95433        28.55820        -0.43702
C         58.73068        29.34796        -0.41206
C         59.94489        31.46660         0.05249
C         58.75627        30.78108        -0.09379
C         60.03587        32.90006        -0.01392
C         58.93123        33.68568        -0.16309
C         60.23705        35.93390         0.09357
C         58.98841        35.17675        -0.22531
C         60.24652        37.25083         0.38259
C         58.99829        37.99744         0.70543
C         59.97191        40.17311         1.48633
C         58.96405        39.48969         0.85289
C         59.93244        41.58867         1.59704
C         58.85382        42.34486         1.14647
C         59.89220        44.54773         1.97905
C         58.92909        43.82801         1.14659
C         59.82102        45.90040         2.12285
C         58.67679        46.65749         1.69084
C         58.60071        48.05670         1.98780
O         29.31088        24.69972         0.12533
O         43.74986        25.05453        -2.17363
O         47.88804        44.17943        -1.13458
O         50.09682        45.29396        -1.65828
O         33.02666        24.32948         2.57524
O         44.06293        38.71320         2.66494
O         29.28801        40.93036        -2.70225
O         51.65742        47.67268        -1.55303
O         32.47225        45.14298         0.88608
O         47.05738        33.11184         1.36330
O         39.57403        52.84790         1.73829
O         35.09402        41.31548        -0.24447
O         30.36226        38.21513         2.51631
O         47.69567        49.87652         1.74106
O         52.31845        33.06193         0.97712
O         45.82927        26.37519        -2.85724
O         42.90599        53.81296         1.54419
O         33.08472        40.20107         2.44771
O         34.08997        29.62695        -1.21106
O         44.42141        53.02760        -1.55938
O         49.12922        27.39397        -3.60638
O         51.79956        40.06258        -1.06563
O         44.71449        46.58827         2.21615
O         33.78542        30.98515         2.35390
O         44.73930        42.23739         2.53534
O         49.75526        35.27005         1.94226
O         35.53608        26.96493        -1.75120
O         44.58283        50.38192        -1.48437
O         31.13837        49.13011        -3.43367
O         48.48534        37.58105         2.36731
O         47.96804        24.84484        -3.43477
O         42.29927        32.90482        -1.52663
O         40.16049        18.34255         2.12049
O         58.34766        27.57449        -2.71358
O         58.30592        37.31419         1.82984
O         40.53071        29.24144        -1.70931
O         57.34665        39.79117        -0.97047
O         28.15812        32.12069        -0.67495
O         39.42207        26.99841         1.15079
O         25.94166        28.88920        -0.52255
O         43.77907        30.39456        -2.05225
O         42.82161        40.89973        -0.15191
O         42.09475        46.11452        -0.43318
O         45.07637        26.87446         0.65524
O         55.61956        37.67526         1.64628
O         23.34958        37.99540         0.62673
O         52.44265        23.60258        -3.41179
O         53.56602        44.48386        -1.49869
O         32.68983        46.75513        -2.55351
O         54.47938        33.81543        -2.05618
O         39.62416        24.90135        -1.75621
O         36.90100        22.07318         2.41176
O         58.37117        35.79649        -1.42793
O         38.15634        39.77545         3.42974
O         54.64520        27.52813        -3.30524
O         58.76293        44.36410        -0.20182
O         39.60561        33.43120         2.13370
O         47.25642        35.91150        -0.78612
O         41.28793        31.00286         1.35859
O         45.57071        20.52882        -2.59065
O         50.74402        40.43780         2.35255
H         49.95805        40.61825         2.91213
O         48.18034        45.79585         2.14808
H         48.57536        46.63910         2.49320
O         50.09015        32.48929        -2.54476
H         49.94686        31.74495        -3.17835
O         30.02289        35.73024         3.00208
H         30.71214        36.28047         3.45051
O         42.98069        44.66328         2.85158
H         43.72498        45.28951         3.03612
O         42.76479        27.64796         1.57816
H         43.69515        27.46781         1.85316
O         53.79488        42.00542        -1.71286
H         53.58605        42.83129        -2.21467
O         38.77974        51.00407        -1.34591
H         38.93315        50.10387        -1.70354
O         29.58071        27.05060         2.87836
H         29.08730        26.48125         3.51483
O         25.65899        38.98234        -2.87756
H         26.48873        39.14833        -3.37248
O         37.59678        44.78991         3.11381
H         37.62293        43.88582         3.53312
O         32.26116        27.56426        -1.41988
H         32.90719        28.21214        -1.79653
O         30.13898        43.20781        -3.49114
H         29.79149        42.35421        -3.84237
O         48.94270        52.33178        -1.97639
H         49.77887        51.90306        -2.26046
O         28.56375        31.12830         2.82080
H         29.35688        30.89668         3.36056
O         28.11268        24.82887         3.59297
H         27.36702        24.43669         4.09479
O         34.81562        43.52657        -1.38201
H         35.30853        42.67221        -1.45158
O         53.22382        50.50359        -1.52864
H         52.81329        49.73616        -1.98638
O         26.18867        44.07488        -4.27686
H         26.28011        43.16041        -4.61572
O         32.49719        37.25318         3.46714
H         32.38778        38.15137         3.84761
O         41.08564        22.15518        -1.98012
H         41.03918        23.04678        -2.39094
O         49.49399        48.09082         2.07788
H         49.10653        48.90417         2.49180
O         24.52250        40.16022         0.37878
H         23.95422        39.61847         0.99330
O         34.62006        48.86154         1.88961
H         34.51214        47.94344         2.22244
O         29.17076        47.96909        -0.65515
H         28.35374        47.46185        -0.45975
O         31.30233        30.61147         3.03441
H         32.18597        30.34519         3.37947
O         37.64425        42.14482         3.49266
H         37.90502        41.30526         3.99276
O         31.94551        33.69659        -0.52760
H         31.16890        33.97109        -1.05883
O         42.45310        48.47188        -1.36661
H         43.14718        48.93394        -1.89292
O         41.66298        35.00794         2.68630
H         40.88312        34.47057         2.97134
O         28.84086        48.16087        -4.33869
H         29.73226        48.57044        -4.45898
O         21.78411        26.86436         2.17725
H         22.05369        27.23946         3.04023
O         57.38673        33.06133         1.50438
H         58.16442        32.62385         1.91296
O         25.65249        45.39122        -0.89928
H         25.30561        46.26179        -0.61344
O         23.72756        31.36195         2.23832
H         23.66426        32.34141         2.26822
O         38.78076        30.57024         2.11865
H         39.69174        30.38485         2.44409
O         53.52517        46.51862         2.23185
H         54.21432        47.01332         2.72622
O         48.06941        30.35684        -3.17439
H         47.80865        29.57238        -3.70430
O         37.29476        23.81653        -1.68994
H         38.08533        23.94843        -2.26661
O         23.23682        35.46366         1.00147
H         23.12953        36.48023         1.04549
O         37.64516        18.41367         2.74611
H         38.50910        18.50977         3.21040
O         38.96619        35.36727        -0.87500
H         38.91336        36.30678        -1.15145
O         55.76595        29.10255         0.87673
H         56.36578        29.56885         1.49551
O         55.57019        31.54285        -2.65078
H         55.09006        32.25423        -3.13388
O         34.91078        51.18014        -2.14726
H         35.04259        50.34704        -2.64747
O         43.70957        43.82218        -0.63330
H         44.41845        43.33067        -1.09833
O         39.11036        48.42095         2.64766
H         38.47146        47.81884         3.08890
O         36.56909        30.06941        -1.81616
H         35.67151        30.22170        -2.19081
O         32.52934        33.39843         3.05162
H         33.19498        32.88296         3.55485
O         43.11171        24.49861         1.39034
H         42.37284        24.11229         1.90568
O         41.92776        48.48885         2.27269
H         41.09494        48.50544         2.80272
O         29.54796        27.27258        -0.77366
H         30.30116        27.36634        -1.40280
O         39.69047        21.43942         2.60321
H         38.89097        21.77847         3.06724
O         55.11533        24.20974        -4.09699
H         54.24343        23.79606        -4.30359
O         33.49501        52.07032         1.11570
H         34.26732        51.80353         1.67709
O         55.78609        26.39171        -0.29075
H         56.42025        25.76316         0.11370
O         53.08264        41.88669         1.85928
H         52.35163        41.43859         2.35441
O         50.32322        29.65385        -3.70079
H         49.86633        29.02865        -4.30920
O         36.02975        51.15386         2.06852
H         35.72003        50.27059         2.39111
O         40.32662        54.31886        -1.55723
H         40.26379        55.18603        -2.01258
H         22.34773        26.89897         0.20387
H         21.88619        29.31469         1.27598
H         21.96710        31.04983        -0.13533
H         22.09888        33.43191        -0.73252
H         22.89626        35.12257        -2.08989
H         22.98959        37.57786        -2.46915
H         22.23251        39.56230        -1.52020
H         22.46756        41.63892        -2.79845
H         22.49411        43.53016        -2.93953
H         22.57578        45.94118        -3.39213
H         25.33081        23.53009         2.34323
H         23.17354        24.70396         2.02080
H         25.97371        49.27192        -3.38210
H         23.84747        48.05913        -3.53076
H         27.08490        22.45419         2.12231
H         27.41774        50.29510        -2.64665
H         29.16491        21.32273         1.76174
H         29.35527        51.57321        -1.98690
H         33.11002        19.35176         1.68612
H         30.95837        20.42430         1.80174
H         32.80133        53.95955        -1.12718
H         31.16884        52.59283        -2.28292
H         34.57089        18.68068         0.32237
H         34.34164        55.00653        -0.62872
H         36.62199        17.37132         0.06791
H         36.40522        56.28593        -0.42893
H         40.35195        14.90876         0.12865
H         38.25019        16.08780         0.65349
H         40.15391        58.51788        -0.08445
H         38.03531        57.29399         0.06655
H         42.76267        14.89779        -0.21380
H         42.65027        58.56258        -0.15539
H         44.86063        16.10128        -0.71504
H         44.81159        57.38861        -0.25782
H         48.57988        18.45235        -0.97791
H         46.54816        17.15962        -0.74332
H         48.61252        55.16744         0.11737
H         46.51255        56.38056         0.42168
H         50.12620        19.57976        -0.51880
H         50.33127        54.31763        -0.38335
H         52.20384        20.84199        -0.80323
H         52.41522        53.10661        -0.06347
H         55.92166        23.04366        -1.46247
H         53.88294        21.91172        -0.86835
H         55.85086        50.83504         1.64310
H         53.98654        52.13634         0.82145
H         57.54792        23.75362        -2.88748
H         57.44062        49.83955         1.97885
H         59.64275        24.63973        -1.96911
H         60.93959        26.69154        -0.78435
H         60.84918        28.97983         0.04276
H         60.89265        30.91533         0.11514
H         61.04234        33.34287        -0.01580
H         61.19688        35.41465        -0.05001
H         61.20603        37.77798         0.49578
H         60.84795        39.63433         1.87358
H         60.80589        42.09090         2.03297
H         60.67917        43.98837         2.50361
H         60.59331        46.42728         2.70248
H         59.48923        48.56028         2.39469
