         598
 CSIRO Nanostructure Databank - Neutral Graphene Oxide Data Set
C         22.95262        70.04564        -0.02786
C         22.98281        71.42309         0.15443
C         21.81792        72.12735         0.59987
C         23.04480        74.22062         0.68480
C         21.85413        73.49200         0.83402
C         25.39147        65.70252        -0.24177
C         25.38396        67.19993        -0.46799
C         24.19411        67.86115        -0.36671
C         25.41285        70.09715        -0.76653
C         24.08774        69.31163        -0.57300
C         25.38815        71.52790        -0.41561
C         24.22012        72.16915        -0.02730
C         25.45782        74.31159         0.24555
C         24.24201        73.59001         0.28221
C         27.79586        61.44475        -1.39812
C         27.86629        62.93199        -1.09233
C         26.66546        63.63777        -0.85988
C         27.88173        65.74817        -0.73855
C         26.66805        65.01472        -0.66225
C         27.87425        67.18330        -0.61757
C         26.64236        67.91145        -0.60088
C         27.90146        70.00717        -0.46925
C         26.67382        69.32988        -0.64316
C         27.96859        71.48448        -0.53226
C         26.63101        72.29241        -0.53546
C         27.92736        74.32736         0.02696
C         26.68068        73.68893        -0.07717
C         30.35058        57.13724        -0.92368
C         30.34292        58.55418        -0.95696
C         29.09964        59.30676        -1.05632
C         30.29042        61.44056        -0.80162
C         29.05971        60.67092        -1.07071
C         30.33860        62.87520        -1.23818
C         29.07341        63.63843        -1.11160
C         30.34932        65.78913        -0.99027
C         29.11042        65.05674        -0.95640
C         30.34311        67.16247        -0.74170
C         29.11099        67.87194        -0.55986
C         30.34104        69.98690        -0.07041
C         29.11981        69.29346        -0.36091
C         30.27343        71.37704         0.51015
C         29.13299        72.18396        -0.03626
C         30.39316        74.25839         0.33548
C         29.14755        73.59152         0.07096
C         32.70252        52.70911        -0.67384
C         32.36007        54.00200        -1.14382
C         31.43245        54.93894        -0.69989
C         32.79658        57.06283        -1.07395
C         31.53472        56.36863        -0.97204
C         32.80263        58.50312        -0.96720
C         31.57479        59.23693        -0.93258
C         32.85700        61.44640        -0.94844
C         31.60108        60.69620        -0.74443
C         32.90395        62.83755        -0.95336
C         31.65143        63.58785        -1.28435
C         32.80336        65.72196        -0.55836
C         31.67147        65.11754        -1.38067
C         32.90985        67.21026        -0.58837
C         31.60059        67.95659        -0.69200
C         32.79522        69.97498         0.21174
C         31.57138        69.33167        -0.15805
C         32.77265        71.38366         0.48131
C         31.58877        72.10595         0.44270
C         32.85347        74.23910         0.48049
C         31.59549        73.55619         0.45665
C         35.20762        48.53425        -0.63320
C         35.24669        49.91324        -0.74385
C         34.03457        50.68929        -0.68350
C         35.21966        52.74608        -1.47430
C         33.95504        52.06242        -0.91219
C         35.31895        54.24706        -1.20515
C         34.22589        55.04284        -1.52282
C         35.27687        57.04684        -0.73419
C         34.08036        56.40058        -1.13025
C         35.22881        58.48336        -0.44699
C         34.01749        59.20795        -0.82737
C         35.41319        61.42707        -0.78646
C         34.08511        60.66464        -1.00626
C         35.34571        62.86235        -0.48286
C         34.12655        63.53189        -0.65921
C         35.29653        65.68414         0.04281
C         34.05210        64.95295        -0.27275
C         35.27524        67.09146         0.24664
C         34.07965        67.85742         0.03571
C         35.26914        69.92911         0.59698
C         34.03494        69.23938         0.29376
C         35.29205        71.34262         0.71528
C         34.01383        72.08603         0.97803
C         35.30956        74.20198         0.55393
C         34.06283        73.55210         0.61136
C         37.67878        44.14580        -0.36215
C         37.68176        45.60425        -0.48700
C         36.47823        46.29354        -0.56465
C         37.76416        48.49370        -0.37257
C         36.41621        47.73695        -0.37155
C         37.76229        49.92388        -0.71808
C         36.51530        50.63317        -0.85508
C         37.70911        52.75295        -0.93308
C         36.49197        52.02238        -1.05405
C         37.71530        54.13876        -0.70384
C         36.50986        54.90180        -0.78262
C         37.71851        57.07037        -0.39979
C         36.49852        56.33815        -0.61730
C         37.78718        58.46329        -0.29543
C         36.53355        59.22537        -0.22286
C         37.75395        61.35388        -0.00595
C         36.59904        60.68834        -0.35376
C         37.75089        62.80174         0.15077
C         36.52585        63.53002        -0.02019
C         37.66098        65.62572         0.70019
C         36.49385        64.95289         0.22590
C         37.68627        67.03003         0.83638
C         36.48682        67.76949         0.59528
C         37.72651        69.89403         0.81692
C         36.48639        69.19681         0.67865
C         37.73845        71.31601         0.74284
C         36.50724        72.03978         0.71829
C         37.77194        74.15922         0.57589
C         36.53420        73.49254         0.64243
C         40.30623        39.98253        -0.61289
C         40.17576        41.27365        -0.18420
C         38.80936        41.90877         0.03235
C         40.12438        44.06693        -0.33674
C         38.80894        43.41159        -0.18111
C         40.18286        45.52459        -0.64576
C         38.93727        46.31781        -0.54496
C         40.22248        48.44087        -0.75853
C         38.99291        47.71571        -0.59936
C         40.24346        49.84328        -0.81958
C         38.99276        50.55456        -0.92309
C         40.30357        52.72875        -0.99257
C         38.98375        52.01232        -1.10635
C         40.27277        54.10344        -0.40711
C         38.95711        54.82169        -0.28875
C         40.24021        57.06759        -0.40739
C         38.96482        56.31614        -0.18476
C         40.26556        58.50604        -0.09284
C         39.01529        59.18654        -0.10531
C         40.17267        61.28009         0.42551
C         38.98812        60.60181         0.15016
C         40.10659        62.65019         0.95532
C         38.88840        63.42099         0.69183
C         40.13580        65.56702         1.45943
C         38.81681        64.81967         1.11448
C         40.11983        67.02860         1.34044
C         38.93291        67.72929         1.12683
C         40.16496        69.89226         0.98530
C         38.94674        69.17734         1.00683
C         40.17698        71.28086         0.71985
C         38.97720        72.01463         0.68290
C         40.24408        74.13614         0.52842
C         39.00354        73.46102         0.58375
C         43.21373        36.29758        -2.13753
C         43.05754        37.53922        -1.51336
C         41.76259        38.11741        -1.32544
C         42.76727        40.06757        -0.23018
C         41.60717        39.36892        -0.75100
C         42.61933        41.33546         0.34372
C         41.36735        42.02099         0.19394
C         42.47692        44.21748         0.67046
C         41.32726        43.41036         0.20441
C         42.62096        45.62315         0.21999
C         41.51183        46.21915        -0.54900
C         42.73583        48.43794        -0.35988
C         41.50716        47.71790        -0.71537
C         42.74741        49.85577        -0.54976
C         41.52490        50.55380        -0.77776
C         42.79910        52.67103        -0.76333
C         41.56259        51.96451        -0.83494
C         42.78313        54.16054        -0.84760
C         41.55266        54.85746        -0.37618
C         42.77705        57.09279        -0.16047
C         41.54787        56.35197        -0.50223
C         42.75896        58.46249         0.09538
C         41.49521        59.16754         0.05997
C         42.77511        61.36678         0.51109
C         41.46196        60.62773         0.18759
C         42.72572        62.71769         1.08365
C         41.44398        63.39141         1.32559
C         42.62963        65.57186         1.46783
C         41.43087        64.86860         1.37328
C         42.68074        67.00122         1.58718
C         41.39247        67.71637         1.62139
C         42.72350        69.84272         1.17375
C         41.41820        69.23147         1.39077
C         42.76628        71.21330         0.66331
C         41.44609        71.97142         0.44691
C         42.72160        74.08519         0.42463
C         41.47481        73.44410         0.48135
C         45.94528        33.96001        -3.20238
C         44.66576        34.48034        -2.97185
C         45.66617        36.51194        -2.00716
C         44.49887        35.74461        -2.36843
C         45.51972        37.76450        -1.40778
C         44.22654        38.27758        -1.08902
C         45.23009        40.22351         0.11255
C         44.07194        39.49974        -0.39100
C         45.10920        41.42300         0.75265
C         43.75217        41.96825         1.11952
C         45.00103        44.26098         1.26226
C         43.71817        43.50055         1.13801
C         44.81873        45.77646         1.44807
C         43.77029        46.35060         0.48216
C         45.21385        48.35354        -0.17458
C         43.86462        47.72290         0.04369
C         45.19890        49.85406        -0.27161
C         44.00297        50.56291        -0.45721
C         45.26921        52.74028        -0.20891
C         44.00420        51.99470        -0.57766
C         45.32915        54.18909        -0.67469
C         44.03904        54.94803        -0.70697
C         45.30081        57.00937         0.25674
C         43.99630        56.28953        -0.03131
C         45.26295        58.46605         0.46506
C         44.00078        59.17029         0.45223
C         45.15978        61.23671         1.23428
C         43.97605        60.54545         0.71873
C         45.15732        62.70639         1.34999
C         43.93431        63.38114         1.40183
C         45.11799        65.56630         2.12930
C         43.85613        64.80843         1.80182
C         45.15496        67.02697         1.86571
C         43.90070        67.71962         1.71369
C         45.13925        69.91647         1.55379
C         43.90845        69.17119         1.51022
C         45.14000        71.31944         1.33648
C         43.98110        71.99074         0.88195
C         45.18344        74.10720         0.52346
C         43.95447        73.39781         0.59719
C         47.08451        34.66947        -2.83663
C         48.12755        36.64176        -1.79086
C         46.98405        35.95027        -2.23328
C         48.04215        37.91905        -1.19147
C         46.71789        38.64333        -1.18420
C         47.75499        40.40775         0.25654
C         46.56108        39.50513         0.06849
C         47.62529        41.62719         0.89663
C         46.28338        42.07716         1.44969
C         47.37523        44.32181         2.02569
C         46.16999        43.60677         1.50399
C         47.36989        45.86790         1.99897
C         46.14128        46.57268         1.47754
C         47.62443        48.51773         0.54501
C         46.28774        47.89563         0.79004
C         47.73809        49.75718        -0.01954
C         46.51845        50.50307        -0.44251
C         47.80782        52.76165        -0.22660
C         46.55855        52.01213        -0.54834
C         47.79655        54.11946        -0.05832
C         46.59569        54.92123        -0.39070
C         47.77146        57.06379         0.13624
C         46.57400        56.35891        -0.05122
C         47.75076        58.47503         0.41734
C         46.49335        59.13363         0.60393
C         47.76895        61.27481         1.06630
C         46.51282        60.50928         1.11682
C         47.72209        62.78456         1.16421
C         46.43287        63.34374         1.76853
C         47.68573        65.58961         2.24277
C         46.40816        64.79312         2.17928
C         47.65908        67.04113         1.94924
C         46.39255        67.70145         1.82847
C         47.72433        69.91338         1.81751
C         46.38526        69.18390         1.87989
C         47.69720        71.38759         1.54125
C         46.38523        72.11772         1.39914
C         47.63388        74.13250         0.60470
C         46.40238        73.47544         0.79160
C         49.15471        38.59461        -0.70900
C         50.19693        40.56916         0.35092
C         49.05299        39.87736        -0.06232
C         50.09715        41.79563         1.05731
C         48.79273        42.35598         1.27307
C         49.81928        44.06990         2.60328
C         48.66534        43.57806         1.99540
C         49.79476        46.14900         2.51439
C         48.66023        46.59894         1.87745
C         50.16636        48.45865         0.95179
C         48.81658        47.73886         0.94804
C         50.24961        49.86119         0.49866
C         49.05847        50.44233        -0.14022
C         50.31339        52.68712         0.16499
C         49.07691        52.00056        -0.21074
C         50.29439        54.13980         0.41860
C         49.00695        54.88850         0.30572
C         50.22446        57.07816         0.21049
C         49.02303        56.36651         0.14829
C         50.20922        58.50160         0.34950
C         48.98301        59.18254         0.55104
C         50.21924        61.32784         1.05847
C         48.96228        60.61750         0.84093
C         50.18664        62.69586         1.56105
C         49.00150        63.37820         1.72604
C         50.20224        65.60346         1.87791
C         48.99024        64.81554         2.12741
C         50.15677        67.00220         1.82378
C         48.90224        67.72966         1.81772
C         50.20620        69.79646         1.32856
C         48.97923        69.14354         1.61001
C         50.14815        71.19137         0.79509
C         48.85677        71.97844         0.82452
C         50.07931        74.07748         0.32920
C         48.87488        73.44952         0.63298
C         51.25977        42.47021         1.52918
C         52.30119        44.46159         2.62935
C         51.14972        43.64319         2.28906
C         52.32896        45.86663         2.66145
C         51.13151        46.64239         2.30608
C         52.46976        48.67313         2.01336
C         51.26136        47.88860         1.73819
C         52.54535        50.06116         1.47049
C         51.42084        50.58549         0.64745
C         52.83041        52.68842         0.24801
C         51.48677        51.99466         0.35957
C         52.76894        54.19645         0.38735
C         51.57254        54.86768         0.31192
C         52.81794        57.05752         0.13623
C         51.50282        56.32184         0.07511
C         52.79987        58.53878         0.36742
C         51.47737        59.27388         0.42375
C         52.66399        61.23935         1.46327
C         51.42605        60.65141         0.98723
C         52.78623        62.64611         1.74493
C         51.47986        63.34225         1.93422
C         52.71537        65.59638         1.91133
C         51.45667        64.85473         1.99106
C         52.57902        66.94871         2.10125
C         51.40182        67.74124         1.81738
C         52.75703        69.89399         1.20170
C         51.46410        69.11695         1.47440
C         52.65510        71.31828         0.72770
C         51.35463        71.98651         0.59452
C         52.53008        74.08510         0.00419
C         51.32114        73.36582         0.29722
C         53.57347        46.57253         2.72516
C         54.88176        48.69292         2.49541
C         53.69103        47.95240         2.43613
C         54.97483        50.06839         2.08433
C         53.85466        50.74494         1.48252
C         55.15850        52.79545         1.21419
C         53.94807        52.06260         1.05014
C         55.24931        54.17870         0.84502
C         54.03040        54.91262         0.49507
C         55.28205        57.07218         0.55520
C         54.02482        56.29672         0.50150
C         55.20025        58.45514         1.08866
C         53.96378        59.09733         1.11229
C         55.53776        61.39096         1.97314
C         53.71474        60.34923         1.75535
C         55.31524        62.77068         1.62725
C         54.02639        63.37498         1.73620
C         55.21139        65.61058         1.03248
C         53.96668        64.87337         1.50767
C         55.34414        67.10350         0.93080
C         54.37692        67.99631         1.41305
C         55.06612        69.77981         0.00071
C         54.05727        69.21848         0.81917
C         54.94053        71.16936        -0.50501
C         53.70690        71.93900        -0.14823
C         54.91601        74.06040        -0.68759
C         53.74198        73.42177        -0.24587
C         56.18286        50.78253         2.20159
C         57.50129        52.86660         1.95652
C         56.28897        52.13472         1.79479
C         57.61298        54.19404         1.55441
C         56.48012        54.85137         0.95457
C         57.88159        56.99120         0.81290
C         56.58052        56.27888         0.56006
C         57.76975        58.39264         1.37967
C         56.46287        59.10489         1.54809
C         57.63741        61.19445         0.69819
C         56.54806        60.58891         1.51480
C         57.63924        62.68932         0.79485
C         56.50187        63.43206         1.09120
C         57.56232        65.48032         0.23003
C         56.48648        64.86163         0.82113
C         57.53893        66.89156        -0.19273
C         56.34364        67.68959         0.13872
C         57.47091        69.72916        -0.75806
C         56.25052        69.04733        -0.23904
C         57.42224        71.22320        -0.86684
C         56.15284        71.94650        -0.77120
C         57.36306        74.04320        -1.25969
C         56.14287        73.35203        -0.91125
C         58.91196        54.86912         1.62047
C         59.96774        56.99600         0.53162
C         59.01320        56.20536         1.40708
C         60.24317        58.43102         0.91230
C         59.02091        59.18644         1.18608
C         60.19705        61.27692         0.69591
C         58.98619        60.54667         0.96661
C         60.14458        62.59997         0.29157
C         58.83068        63.28183         0.16294
C         60.07389        65.46196        -0.28439
C         58.78650        64.74543        -0.15207
C         60.13348        66.84578        -0.23119
C         58.86191        67.62771        -0.34826
C         59.77468        69.93819         0.06264
C         58.76599        69.11659        -0.31468
C         59.91548        71.37636        -0.25349
C         58.63351        72.05375        -0.61010
C         59.88559        73.98727        -1.39955
C         58.62564        73.41678        -1.17819
C         61.41493        59.08148         0.68768
C         62.62329        61.21639         0.09354
C         61.52768        60.57964         0.90368
C         62.58117        62.55641        -0.30652
C         61.32121        63.31287        -0.15276
C         62.42473        65.29350        -1.21207
C         61.26767        64.66204        -0.47065
C         62.48881        66.78698        -1.03738
C         61.42761        67.48595        -0.44860
C         62.56958        69.64204        -0.87192
C         61.64985        68.85101        -0.17790
C         62.49235        71.15997        -0.82258
C         61.19837        71.93247        -0.74852
C         62.28737        73.91546        -1.77715
C         61.12683        73.25511        -1.27030
C         63.73156        63.20794        -0.79918
C         64.87323        65.37847        -1.62830
C         63.78058        64.71019        -0.81769
C         64.81473        66.73550        -1.89148
C         63.62530        67.49489        -1.47163
C         64.67747        69.60215        -2.24704
C         63.59493        68.90957        -1.52455
C         64.71919        71.09347        -2.16827
C         63.67600        71.88350        -1.41962
C         64.61289        73.91217        -2.54530
C         63.54000        73.28817        -1.90330
C         65.92361        67.46225        -2.44557
C         67.02935        69.57864        -3.07216
C         65.91476        68.85298        -2.58510
C         67.09035        70.99269        -3.09608
C         66.02011        71.76533        -2.43282
C         66.99229        73.86282        -3.50116
C         65.93713        73.30218        -2.66857
C         68.15318        71.70404        -3.67307
C         68.08036        73.10378        -3.87575
O         66.42969        72.67324        -1.41344
O         47.08695        69.63215         3.09637
O         37.08973        48.17249         0.87911
O         48.43376        65.20893         3.43572
O         45.79980        60.60985         2.39993
O         56.02204        56.75670        -0.69373
O         41.29928        68.65287         2.74031
O         49.53374        54.49111         1.64340
O         59.12868        72.12326         0.77780
O         53.82112        71.31575        -1.46862
O         24.55884        69.75209        -1.89390
O         58.56596        63.74874        -1.22271
O         54.18585        65.15036         0.05515
O         42.17470        71.38644        -0.68467
O         51.42467        64.00322         3.23865
O         39.69558        52.55504        -2.30356
O         46.85979        39.54885        -2.38249
O         44.54689        56.23115         1.32274
O         35.68537        58.83602         0.92935
O         49.21083        71.24198        -0.38241
O         52.33721        59.28033        -0.79392
O         33.17246        54.45039        -2.22122
O         52.24442        56.67791        -1.14991
O         46.59468        51.22034        -1.74806
O         30.89550        61.16448         0.49315
O         42.24248        61.32702        -0.87012
O         49.27351        51.14299        -1.38600
O         38.86626        55.48987         1.02167
O         32.96407        65.17271         0.76872
O         53.68807        67.64827         2.56208
O         53.02634        71.01380         2.12626
O         46.17235        54.55161        -1.79284
O         54.57213        60.76224         2.78167
O         57.14925        58.45024         2.70601
O         44.21882        65.13432         3.19146
O         41.04920        54.23046         0.83735
O         47.16494        72.13867         2.65578
O         47.10714        45.12982         3.22194
O         40.61595        62.72592         2.33272
O         40.84844        56.78445        -1.72224
O         31.03591        63.03380        -2.52483
O         58.78844        57.12456        -0.39443
O         41.82423        46.81520        -1.84909
O         43.37632        54.82925        -2.00320
O         57.48092        70.34246        -2.07897
O         49.76802        47.53039        -0.14436
O         32.49596        67.81054        -1.84975
O         34.96998        61.04997        -2.13300
O         60.84225        69.42637         0.79942
O         64.17707        70.44729        -3.36404
O         40.24795        44.54572        -1.74846
O         39.24068        65.05932         2.49556
O         42.73545        43.98254         2.11877
O         58.09689        67.12973        -1.51417
O         49.68902        45.14600         3.49372
O         63.59345        71.70527         0.01877
O         27.37967        72.03735        -1.75311
O         45.92272        47.85182         2.19219
O         46.43081        63.72037         3.16839
O         52.10608        49.82888         2.87587
O         31.94948        65.44202        -2.75632
H         31.45415        64.79537        -3.30898
O         45.27706        52.79616         1.25208
H         44.48683        53.28660         1.56469
O         37.81473        41.28752        -0.78194
H         37.97952        41.54243        -1.71284
O         64.00076        65.10862         0.57963
H         64.83589        64.69637         0.88537
O         57.34529        60.89831        -0.71442
H         57.77190        61.58996        -1.26757
O         27.50598        61.29395        -2.80349
H         28.22846        61.71752        -3.31203
O         46.55327        38.58703         1.19756
H         46.48594        39.12801         2.01454
O         45.67172        47.84437        -1.47483
H         45.10245        48.23081        -2.17435
O         53.23050        52.45857        -1.14671
H         52.59613        52.92723        -1.72997
O         43.53996        41.56150         2.52380
H         42.91870        42.22973         2.90375
O         45.71298        40.42798        -2.43874
H         45.18840        40.06238        -3.19233
O         47.65033        63.26878        -0.23165
H         48.39519        62.86936        -0.73105
O         46.25965        41.59583         2.82636
H         45.30931        41.60035         3.10852
O         33.87907        72.06542         2.45056
H         33.11579        72.63908         2.67814
O         62.23033        64.99437        -2.61841
H         61.32124        65.26404        -2.86772
O         44.25272        45.95210         2.76740
H         44.97145        45.78137         3.41640
O         24.25006        65.09292        -0.85121
H         24.28523        65.26865        -1.81376
O         35.14780        52.57986        -2.92103
H         34.34614        53.06883        -3.21743
O         29.98486        71.20041         1.96250
H         30.74216        70.70844         2.34765
O         61.89869        60.77530         2.31999
H         61.20792        60.33809         2.86235
H         23.05628        75.29753         0.90605
H         25.45452        75.37509         0.52774
H         27.95702        75.40023         0.26892
H         30.40608        75.35794         0.35878
H         32.86363        75.33130         0.34134
H         35.33734        75.29141         0.39596
H         37.78343        75.25722         0.50329
H         40.25188        75.23619         0.50684
H         42.75155        75.18083         0.32890
H         45.17752        75.15687         0.19513
H         47.62709        75.19306         0.31109
H         50.08746        75.15965         0.13315
H         52.47251        75.17637        -0.12145
H         54.90902        75.15383        -0.81007
H         57.30248        75.10769        -1.53147
H         59.94953        75.02251        -1.76836
H         62.17762        74.94673        -2.14557
H         64.45562        74.90069        -3.00376
H         66.88185        74.89183        -3.87249
H         22.06751        69.47666         0.29600
H         20.88090        71.56788         0.73216
H         20.94216        74.01291         1.15757
H         25.28018        65.52800         0.86780
H         23.28032        67.29399        -0.13247
H         26.93013        60.99319        -0.85020
H         25.71167        63.09222        -0.81583
H         29.38705        56.61095        -0.85361
H         28.17126        58.73733        -1.21666
H         31.96906        52.16542        -0.05705
H         30.61683        54.61580        -0.03522
H         34.23446        48.01971        -0.63382
H         33.11213        50.15209        -0.41111
H         36.69936        43.64465        -0.32594
H         35.54204        45.73973        -0.73215
H         39.41184        39.40616        -0.89318
H         38.51775        41.70288         1.10200
H         42.32285        35.73619        -2.45675
H         40.87976        37.56654        -1.68300
H         46.04919        32.97132        -3.67104
H         43.77762        33.89918        -3.25878
H         48.08080        34.23789        -3.01028
H         49.11241        36.15688        -1.87405
H         50.15113        38.13660        -0.80717
H         51.19125        40.13972         0.15824
H         52.25151        42.08002         1.25715
H         53.27643        43.94714         2.65037
H         54.48457        46.00439         2.96931
H         55.79673        48.20477         2.86516
H         57.06287        50.28721         2.63885
H         58.37022        52.36339         2.40619
H         59.80750        54.24936         1.78246
H         60.83369        56.46424         0.07602
H         62.31708        58.52182         0.39532
H         63.56486        60.65662        -0.02224
H         64.67179        62.63746        -0.87785
H         65.78613        64.81420        -1.87789
H         66.83252        66.90491        -2.72002
H         67.91024        69.01505        -3.41661
H         68.99605        71.14727        -4.10622
H         68.88324        73.58191        -4.45524
