         421
 CSIRO Nanostructure Databank - Neutral Graphene Oxide Data Set
C          1.34608         2.09337        -0.33012
C          1.23555         3.45937        -0.85703
C          2.54815         1.47472        -0.25662
C          2.51427         4.23309        -1.09996
C          1.31575         6.47077        -1.60603
C          1.35778         7.78315        -1.88546
C          2.48498         5.73159        -1.06741
C          2.60929         8.62442        -1.88053
C          1.32730        10.70029        -1.16389
C          1.34377        12.04459        -1.09610
C          2.57381         9.87794        -0.97958
C          2.58504        12.79710        -0.96716
C          1.33851        14.95586        -0.70281
C          1.31515        16.30856        -0.70162
C          2.57729        14.20922        -0.82415
C          2.57419        17.08275        -0.98496
C          2.52747        18.51573        -0.53806
C          3.79650         2.17179        -0.51305
C          3.79518         3.55908        -0.80097
C          5.01750         1.48883        -0.36366
C          5.03012         4.27829        -0.88250
C          3.83328         6.45067        -1.13077
C          3.86304         7.85229        -1.55149
C          5.05593         5.65862        -1.16812
C          5.08305         8.54167        -1.49705
C          3.85002        10.68425        -1.21192
C          3.81197        12.08935        -1.07209
C          5.06471         9.99987        -1.44752
C          5.07859        12.89912        -1.25710
C          3.80950        14.92687        -0.61866
C          3.79230        16.34250        -0.48232
C          5.04845        14.23130        -0.52113
C          4.96232        17.03438        -0.14586
C          3.65910        19.17137        -0.22325
C          4.94468        18.48839        -0.14391
C          6.25012         2.16135        -0.51127
C          6.27023         3.55678        -0.76869
C          7.49143         1.45542        -0.40103
C          7.52264         4.25657        -0.83760
C          6.32165         6.32937        -1.63123
C          6.30504         7.81362        -1.36622
C          7.55884         5.64749        -1.10590
C          7.54123         8.50186        -1.26852
C          6.32624        10.71075        -1.39172
C          6.32344        12.07660        -1.09646
C          7.55825         9.91721        -1.42635
C          7.50943        12.68824        -0.42062
C          6.19148        14.87549         0.00762
C          6.16513        16.32336         0.20019
C          7.40636        14.09425         0.10666
C          7.32301        17.12205         0.45092
C          6.11972        19.20221        -0.08665
C          7.36557        18.52369         0.11994
C          8.69815         2.11216        -0.47336
C          8.74349         3.53956        -0.63456
C          9.96603         1.29490        -0.46687
C          9.98241         4.24162        -0.60109
C          8.77102         6.36308        -0.99375
C          8.79037         7.79668        -1.14230
C          9.98799         5.65811        -0.71866
C         10.02604         8.50630        -1.07115
C          8.82156        10.49863        -1.69081
C          8.81815        12.55019        -1.14258
C         10.05350         9.91978        -1.33552
C          9.98562        12.91519        -0.53267
C          8.58344        14.48298         0.73778
C          8.55150        16.61057         0.96320
C          9.91740        14.04771         0.38542
C          9.80046        17.13308         0.71116
C          8.59898        19.18557         0.07469
C          9.84116        18.51243         0.28711
C         11.22422         2.09601        -0.24248
C         11.22322         3.52364        -0.38783
C         12.38874         1.41189         0.04455
C         12.44106         4.22788        -0.28595
C         11.22017         6.39051        -0.61954
C         11.23611         7.78108        -0.83240
C         12.45779         5.67337        -0.39275
C         12.52805         8.49880        -0.82816
C         11.28877        10.75014        -1.22210
C         11.26719        12.25636        -0.84368
C         12.57662        10.01733        -0.94154
C         12.44485        12.86868        -0.18232
C         11.06553        14.84090         0.55199
C         11.05132        16.31762         1.06126
C         12.34582        14.22324         0.26993
C         12.25225        17.03437         0.41741
C         11.05812        19.21596         0.30355
C         12.27442        18.53557         0.62201
C         13.63531         2.09233         0.18776
C         13.65496         3.51134        -0.00369
C         14.83566         1.40198         0.46045
C         14.88557         4.19385         0.12731
C         13.65076         6.38065        -0.20930
C         13.68625         7.80841        -0.23543
C         14.97107         5.65597        -0.22258
C         14.80651         8.54491         0.17613
C         13.71418        10.71897        -0.30623
C         13.64476        12.13065        -0.03921
C         14.83392         9.97370         0.13631
C         14.84183        12.81027         0.39668
C         13.57261        14.92829         0.54458
C         13.54635        16.35108         0.75868
C         14.80353        14.24200         0.60188
C         14.68445        17.05789         1.08098
C         13.40988        19.21098         0.98173
C         14.62137        18.50487         1.51947
C         16.05914         2.08707         0.59858
C         16.06375         3.51604         0.46994
C         17.29422         1.40580         0.82976
C         17.30185         4.24877         0.68085
C         15.98523         6.33566         0.65776
C         15.90081         7.80508         0.86091
C         17.28355         5.63815         0.79664
C         17.14155         8.51375         1.39205
C         16.04179        10.66511         0.59038
C         16.03683        12.10529         0.55473
C         17.15815         9.98344         1.06082
C         17.33505        12.85979         0.53336
C         15.99949        14.95428         0.95341
C         15.94695        16.37808         1.18868
C         17.23513        14.27987         1.02802
C         17.11154        17.10682         1.46194
C         15.92050        19.23435         1.30120
C         17.12839        18.56008         1.41361
C         18.51375         2.08812         0.90996
C         18.53775         3.53493         0.83320
C         19.75018         1.40090         1.09044
C         19.74555         4.24375         0.92056
C         18.48606         6.39863         0.94946
C         18.45172         7.80013         1.05093
C         19.74620         5.68732         0.92671
C         19.67503         8.54628         1.07115
C         18.38763        10.69846         1.56164
C         18.48451        12.13475         1.14827
C         19.65318         9.94202         1.18759
C         19.66696        12.83769         1.39259
C         18.41318        14.95148         1.41936
C         18.35114        16.38210         1.73620
C         19.65770        14.28197         1.46886
C         19.67820        17.16255         1.74699
C         18.39169        19.24863         1.33828
C         19.63054        18.60030         1.40345
C         20.96580         2.08439         1.17091
C         20.99639         3.53237         1.06977
C         22.20417         1.38698         1.28979
C         22.20728         4.21820         1.12672
C         20.94808         6.39976         0.98315
C         20.94647         7.82453         1.04588
C         22.26172         5.68660         0.78635
C         22.16542         8.49592         1.25895
C         20.88534        10.70756         1.13937
C         20.89837        12.13591         1.49572
C         22.21075         9.95157         1.20199
C         22.13397        12.83898         1.57724
C         20.89479        14.98914         1.56107
C         20.91761        16.40966         1.53476
C         22.13044        14.27033         1.54804
C         22.13078        17.10742         1.33761
C         20.85972        19.24208         1.12962
C         22.09646        18.54614         1.12307
C         23.42046         2.05928         1.36413
C         23.44619         3.51845         1.33662
C         24.65786         1.34185         1.33864
C         24.64572         4.20990         1.50318
C         23.44847         6.40822         1.37632
C         23.40111         7.79067         1.52313
C         24.68651         5.66389         1.54258
C         24.61478         8.55716         1.76315
C         23.33238        10.66516         1.92279
C         23.37139        12.14191         1.63446
C         24.63944         9.93900         1.76954
C         24.59677        12.83868         1.62555
C         23.36935        14.97075         1.51362
C         23.36294        16.40452         1.35013
C         24.58861        14.25473         1.56680
C         24.59188        17.09788         1.11152
C         23.30446        19.20209         0.82985
C         24.54045        18.50803         0.78856
C         25.87884         1.99892         1.42747
C         25.88701         3.43546         1.88608
C         27.11100         1.34141         1.19324
C         27.15793         4.16067         1.54586
C         25.87201         6.34577         1.74696
C         25.89193         7.82290         2.06890
C         27.18452         5.61837         1.92119
C         27.09967         8.58127         1.55636
C         25.86952        10.70342         1.70206
C         25.85691        12.09684         1.60649
C         27.11017         9.95867         1.52234
C         27.09401        12.84001         1.38092
C         25.87560        15.01811         1.73953
C         25.82543        16.41354         1.14384
C         27.09391        14.22453         1.33384
C         27.02122        17.07560         0.76299
C         25.73224        19.16870         0.44671
C         26.96169        18.47591         0.38861
C         28.32684         2.04199         1.09515
C         28.32146         3.49665         1.24212
C         29.54758         1.38036         0.82702
C         29.57829         4.21900         1.05246
C         28.29754         6.33382         1.19072
C         28.27948         7.82953         1.10107
C         29.58751         5.62975         1.06776
C         29.57188         8.53044         1.00728
C         28.33943        10.68494         1.22394
C         28.32715        12.09567         1.17084
C         29.55551         9.96424         1.03741
C         29.53529        12.80975         0.84202
C         28.38729        15.00516         1.29331
C         28.26736        16.39207         0.70211
C         29.54394        14.22003         0.74297
C         29.42097        17.04234         0.22020
C         28.14097        19.14259         0.00801
C         29.36784        18.45649        -0.09655
C         30.75721         2.07942         0.65489
C         30.77182         3.51888         0.76213
C         31.97396         1.40425         0.35638
C         31.97781         4.24585         0.51679
C         30.77200         6.36775         0.84773
C         30.75504         7.80524         0.89436
C         31.98947         5.66401         0.58412
C         32.07013         8.52354         1.01015
C         30.77287        10.66793         0.75261
C         30.74117        12.08497         0.59589
C         31.98822         9.96521         0.59994
C         31.92721        12.77624         0.21115
C         30.68656        14.89598         0.24310
C         30.65092        16.33422         0.00660
C         31.85859        14.17187        -0.03806
C         31.79773        17.00935        -0.46764
C         30.54407        19.13552        -0.46921
C         31.76940        18.45086        -0.63571
C         33.15447         2.09871         0.09067
C         33.16644         3.54643         0.12942
C         34.38495         1.40185        -0.16847
C         34.33253         4.26327        -0.20647
C         33.20474         6.38586         0.30454
C         33.23369         7.79243         0.39301
C         34.37761         5.67330        -0.09993
C         34.42987         8.51555         0.13627
C         33.19206        10.65155         0.29859
C         33.15750        12.05698         0.07324
C         34.42588         9.92758         0.19556
C         34.38357        12.75284        -0.22357
C         32.98957        14.80220        -0.80443
C         33.00667        16.31030        -0.78386
C         34.34965        14.25939        -0.35817
C         34.17405        16.98392        -1.16200
C         32.94281        19.13282        -0.99105
C         34.16301        18.44292        -1.25387
C         35.54542         2.07052        -0.51203
C         35.46943         3.53587        -0.87601
C         36.78355         1.39331        -0.69817
C         36.78643         4.25975        -0.78958
C         35.60226         6.39889        -0.35083
C         35.64102         7.80071        -0.20822
C         36.80781         5.67698        -0.66975
C         36.86671         8.52428        -0.43131
C         35.72199        10.68068         0.28919
C         35.59560        12.11176        -0.18499
C         36.91331         9.94844        -0.29854
C         36.85001        12.88271        -0.31168
C         35.47449        14.78382        -1.26812
C         35.43123        16.29465        -1.34627
C         36.81228        14.25632        -0.81782
C         36.60819        16.98684        -1.59285
C         35.30367        19.12873        -1.63313
C         36.53505        18.41124        -2.09094
C         37.96174         2.08615        -0.96819
C         37.97305         3.53881        -0.97012
C         39.20274         1.38886        -1.16512
C         39.21424         4.23542        -1.12351
C         38.03102         6.38277        -0.83748
C         38.05388         7.81434        -0.75891
C         39.23922         5.66034        -1.09582
C         39.27717         8.52089        -0.99785
C         38.09698        10.64120        -0.56045
C         38.15637        12.11773        -0.44151
C         39.29046         9.94877        -0.95078
C         39.31650        12.84813        -0.97964
C         37.97230        14.94369        -1.10823
C         37.89536        16.33990        -1.51385
C         39.25570        14.25855        -1.12830
C         39.07938        17.08248        -1.65671
C         37.80360        19.17976        -1.87778
C         39.01685        18.53331        -1.78599
C         40.37616         2.06541        -1.35124
C         40.41693         3.50299        -1.33621
C         41.62221         4.20755        -1.52862
C         40.47095         6.35216        -1.30280
C         40.48082         7.80437        -1.28288
C         41.64470         5.59706        -1.51709
C         41.65474         8.54037        -1.52913
C         40.49290        10.66850        -1.23912
C         40.49668        12.13194        -1.28704
C         41.65624         9.93184        -1.51840
C         41.64121        12.87202        -1.65772
C         40.42605        14.98099        -1.48190
C         40.36794        16.43795        -1.59396
C         41.61287        14.25949        -1.72127
C         41.52109        17.21397        -1.63245
C         40.25151        19.27817        -1.78074
C         41.45723        18.63112        -1.71496
O         12.91103         9.16708        -2.08940
O          8.49795        15.44771         1.74957
O         27.90962         6.96835        -0.06827
O         18.99829        16.79257         2.98949
O          3.04048         6.27461         0.13624
O         11.47733        11.80714        -2.21381
O         15.37975         6.85600         1.88931
O         21.75899        10.49948        -0.05471
O         37.73342        12.67067         0.87007
O          8.82688        11.76729        -2.29709
O          1.74335         3.65098        -2.20515
O          2.70240        17.13000        -2.45329
H          2.86529        16.21099        -2.75702
O          9.87415         0.21633         0.47485
H          9.81861         0.60084         1.37342
O          5.05908        13.30901        -2.68971
H          5.04057        12.48516        -3.22299
O         32.37095         8.54941         2.46790
H         33.21955         9.03261         2.57510
O         17.08176         8.42746         2.85864
H         16.48716         7.65896         3.05720
O         26.01216        15.23258         3.19367
H         26.95135        15.51150         3.34037
O         17.67672        12.97603        -0.91534
H         16.91403        13.40755        -1.35762
O         14.44150        18.47357         2.98748
H         15.21365        17.99820         3.36294
O         35.13232         3.54900        -2.31730
H         34.28785         3.05954        -2.41883
O         25.87554         3.38578         3.38320
H         26.40969         2.60475         3.64523
O          2.58013         9.41045         0.39284
H          2.52007        10.19246         0.97941
O         11.21252        16.30269         2.48880
H         10.38678        15.93524         2.87261
O          7.72071        11.84109         0.79063
H          6.91246        11.91517         1.34239
O         12.05685        16.83813        -1.01604
H         12.78757        17.28796        -1.48886
O         32.74803        14.39738        -2.19724
H         31.89831        14.79787        -2.47873
O         36.40462        18.29130        -3.57411
H         37.14805        17.72647        -3.87707
O         18.34405        10.75015         3.02918
H         17.96818         9.88653         3.33585
O         27.51473         5.64619         3.35743
H         26.93962         4.94958         3.76772
O         34.56331        14.80314         0.96751
H         35.39093        14.41989         1.32829
O          6.37537         6.17705        -3.11721
H          5.71728         6.79718        -3.49691
O         35.33045        14.25314        -2.61508
H         34.38245        14.35569        -2.87652
O         22.97181        10.54858         3.34316
H         23.75670        10.79612         3.87655
O         15.48427         5.74678        -1.58847
H         14.81537         5.35844        -2.19062
O         22.50842         5.71942        -0.67837
H         21.72675         5.31588        -1.11312
O         26.01123         7.88920         3.54352
H         26.68706         7.20855         3.79893
O         35.99702        10.77405         1.73991
H         36.76496        11.39509         1.82657
O          2.73957         9.13990        -3.23836
H          2.75500         8.37903        -3.85534
O         28.72880        15.25317         2.73023
H         29.02788        14.39634         3.10542
H          0.42881         1.58055        -0.00673
H          0.29936         4.01962        -0.64341
H          2.61062         0.43416         0.09523
H          0.38413         5.90593        -1.76286
H          0.45206         8.26581        -2.28497
H          0.36723        10.17080        -1.25342
H          0.39475        12.59257        -1.17598
H          0.39387        14.40704        -0.58174
H          0.36150        16.84994        -0.61263
H          1.56392        19.04526        -0.58382
H          5.01186         0.41364        -0.13181
H          3.63811        20.24684         0.01090
H          7.47787         0.36504        -0.25690
H          6.11102        20.29813        -0.17876
H         10.05352         0.80918        -1.48104
H          8.61854        20.25904        -0.16492
H         12.35395         0.31859         0.16048
H         11.05583        20.31133         0.19691
H         14.81368         0.30650         0.56045
H         13.37999        20.30974         1.05967
H         17.28523         0.30878         0.91670
H         15.91006        20.33368         1.25003
H         19.74432         0.30226         1.15430
H         18.37151        20.33291         1.15003
H         22.19333         0.28658         1.30412
H         20.85876        20.31713         0.89385
H         24.63529         0.25890         1.14131
H         23.29473        20.28165         0.61714
H         27.10209         0.25809         0.99693
H         25.70800        20.24038         0.19929
H         29.54592         0.28412         0.72921
H         28.10144        20.21590        -0.23032
H         31.97538         0.30453         0.31402
H         30.50534        20.22053        -0.64720
H         34.40237         0.30750        -0.04766
H         32.91527        20.22670        -1.10688
H         36.81314         0.29854        -0.58465
H         35.27508        20.22583        -1.71920
H         39.19076         0.28895        -1.16706
H         37.77433        20.27697        -1.96029
H         41.31539         1.51508        -1.50897
H         42.55392         3.64744        -1.69406
H         42.60582         6.10498        -1.67303
H         42.59704         8.02204        -1.75021
H         42.60010        10.45027        -1.73238
H         42.58221        12.35803        -1.89405
H         42.53030        14.79142        -2.00843
H         42.51030        16.74020        -1.57088
H         40.20537        20.37427        -1.85311
H         42.39428        19.20547        -1.72470
