         344
 CSIRO Nanostructure Databank - Neutral Graphene Oxide Data Set
C          1.61453         3.40284         0.88316
C          0.46440         4.09060         1.33851
C          1.23953         6.17294         0.20094
C          0.29785         5.43375         1.11423
C          1.27318         7.67543         0.38717
C          0.10007         8.38026         0.64281
C          1.24113        10.53058         0.47319
C          0.07758         9.78447         0.67042
C          1.21328        12.00167         0.37248
C          0.00611        12.71377         0.23243
C          1.21675        14.82358         0.07180
C          0.01865        14.09674         0.06754
C          1.18286        16.28697        -0.29727
C          0.07989        17.08366         0.37366
C          1.18259        19.11667        -0.49061
C          0.06576        18.41658         0.25125
C          1.25368        20.60779        -0.18245
C          0.02887        21.37105        -0.32214
C          1.17198        23.47066         0.29320
C         -0.01507        22.71446        -0.13479
C          1.20715        24.95582         0.18852
C          0.00933        25.68914         0.36146
C          1.23202        27.78668         0.34507
C          0.01621        27.07217         0.44303
C          1.27032        29.21162         0.45977
C          3.94852         3.47178         0.05349
C          2.71028         4.12270         0.34089
C          3.75038         6.28548        -0.16725
C          2.60417         5.53067         0.16419
C          3.70546         7.72319        -0.15238
C          2.47853         8.40115         0.16969
C          3.69346        10.54499         0.10895
C          2.46778         9.82343         0.27012
C          3.69923        11.97959         0.58612
C          2.42174        12.72913         0.35078
C          3.70754        14.89010         0.29435
C          2.44475        14.14187         0.23439
C          3.74270        16.28788         0.14526
C          2.50212        17.02163        -0.10125
C          3.74693        19.15178        -0.48356
C          2.48526        18.37532        -0.24709
C          3.73332        20.51953         0.20564
C          2.44022        21.26063         0.01053
C          3.73537        23.45475        -0.01173
C          2.48475        22.71261         0.29306
C          3.69317        24.90441        -0.11019
C          2.43657        25.62727         0.05145
C          3.65413        27.79157        -0.00766
C          2.44810        27.06744         0.11474
C          3.68683        29.20343         0.13782
C          2.45465        29.89841         0.37426
C          6.30547         3.52943        -0.70395
C          5.05031         4.19157        -0.38412
C          6.11828         6.37999        -0.86355
C          4.97503         5.62113        -0.47849
C          6.09049         7.76943        -0.79303
C          4.88483         8.46106        -0.41835
C          6.05972        10.69509        -0.70013
C          4.85506         9.88972        -0.26943
C          6.09687        12.05669        -0.05727
C          4.92667        12.76109         0.22292
C          6.19483        14.87157         0.57194
C          4.95019        14.17632         0.40820
C          6.20589        16.32772         0.57227
C          4.98803        17.00527         0.24047
C          6.15621        19.18410        -0.08049
C          5.00397        18.41885        -0.07469
C          6.13372        20.60553        -0.36013
C          4.95458        21.31879        -0.22228
C          6.08025        23.51560        -0.89233
C          4.90175        22.75241        -0.29744
C          6.14146        24.93536        -0.39533
C          4.88448        25.61330        -0.29797
C          6.16480        27.77316        -0.10689
C          4.88370        27.09754        -0.50839
C          6.16278        29.19920         0.00699
C          4.92261        29.89612         0.06977
C          8.63146         3.48739        -1.61767
C          7.37604         4.20177        -1.18165
C          8.62477         6.36683        -1.01179
C          7.33679         5.68713        -1.45167
C          8.61331         7.74583        -0.80813
C          7.35527         8.52817        -1.14852
C          8.53318        10.54272        -0.26245
C          7.36129         9.93309        -0.59421
C          8.60733        11.94752         0.26102
C          7.31388        12.70159         0.18733
C          8.70205        14.50574         0.89797
C          7.35618        14.02878         0.62162
C          8.67092        16.64343         0.98918
C          7.41628        17.12022         0.63113
C          8.68482        19.27550         0.12689
C          7.38768        18.63334         0.56179
C          8.69364        20.63563        -0.24186
C          7.42385        21.30570        -0.60840
C          8.65852        23.53293        -0.45312
C          7.42221        22.78936        -0.80819
C          8.61826        24.88419        -0.17078
C          7.34889        25.60361        -0.21527
C          8.60484        27.72323         0.10879
C          7.36454        27.04447        -0.04464
C          8.61484        29.15493         0.08006
C          7.40492        29.87167         0.05850
C         11.07918         3.51858        -1.09990
C          9.88847         4.20995        -1.17710
C         11.05011         6.29405        -0.55671
C          9.83780         5.62290        -0.91652
C         11.03298         7.70952        -0.29513
C          9.81797         8.43171        -0.43517
C         10.99931        10.55558         0.04514
C          9.80209         9.84508        -0.22834
C         11.05770        12.01494         0.03610
C          9.77298        12.71945        -0.38454
C         11.03072        14.93466        -0.08241
C          9.79540        14.11629         0.19039
C         11.06858        16.40355         0.31872
C          9.91924        17.18230         0.52437
C         11.13299        19.23400        -0.07955
C          9.90762        18.58462         0.20155
C         11.13262        20.63128        -0.26894
C          9.90490        21.32416        -0.39095
C         11.06981        23.31379         0.38302
C          9.98432        22.82476        -0.61105
C         11.06752        24.84126         0.64478
C          9.82825        25.60332         0.19927
C         11.09736        27.74061         0.67260
C          9.82939        26.98796         0.28145
C         11.10054        29.20142         0.17206
C          9.86720        29.83015        -0.00833
C         13.55112         3.50547        -0.82871
C         12.32174         4.17388        -0.77817
C         13.44347         6.23105         0.10190
C         12.25681         5.57393        -0.46451
C         13.46856         7.69469         0.22544
C         12.24145         8.41229         0.02436
C         13.45131        10.57842         0.26609
C         12.20122         9.81993         0.17759
C         13.42366        11.98760         0.83390
C         12.20453        12.73365         0.33624
C         13.48690        14.87718         0.32982
C         12.29016        14.17731         0.26924
C         13.52394        16.30355         0.08984
C         12.32339        17.05439         0.05570
C         13.54583        19.16162        -0.45515
C         12.36165        18.49449        -0.12249
C         13.59837        20.60047        -0.51365
C         12.39257        21.32702        -0.32063
C         13.62565        23.39938        -0.15542
C         12.41184        22.72514        -0.08834
C         13.67084        24.84291         0.26710
C         12.32161        25.55335         0.19590
C         13.63015        27.51890         0.49849
C         12.33180        26.91146         0.32005
C         13.56642        29.65244         0.29188
C         12.24718        29.99839        -0.08502
C         16.12388         3.53172        -0.62060
C         14.83881         4.28559        -0.84075
C         16.00665         6.26609         0.29869
C         14.76039         5.50826         0.04589
C         15.91153         7.63714         0.68057
C         14.68478         8.33869         0.50886
C         15.91253        10.56829         0.83651
C         14.74148         9.80845         0.43385
C         15.90654        11.97793         0.60996
C         14.73288        12.69892         0.58814
C         16.03257        14.84111         0.24319
C         14.76401        14.19423         0.77468
C         15.99027        16.25086        -0.11639
C         14.79527        16.95441        -0.16105
C         16.03814        19.09603        -1.01449
C         14.76506        18.35904        -0.67538
C         16.04655        20.63075        -1.23634
C         14.82087        21.32534        -0.67502
C         16.11407        23.46699        -0.62800
C         14.84092        22.72296        -0.51805
C         16.09114        24.88208        -0.43879
C         14.75475        25.59647        -0.51173
C         16.01835        27.79742         0.03352
C         14.80732        27.02050         0.00532
C         16.00037        29.24901         0.03366
C         14.80148        30.03862        -0.19992
C         18.57099         3.57510        -0.29307
C         17.26593         4.19669        -0.20592
C         18.44548         6.20794         0.77110
C         17.21099         5.57110         0.26629
C         18.40691         7.64741         1.25315
C         17.07606         8.34307         1.23405
C         18.36797        10.65058         1.63231
C         17.07308         9.88060         1.36576
C         18.40615        12.02950         0.99224
C         17.22370        12.60439         0.25236
C         18.52923        14.73705        -0.14662
C         17.19262        14.11370         0.19364
C         18.48926        16.23794        -0.13226
C         17.25121        16.87001        -0.70124
C         18.46470        19.08078        -0.57825
C         17.27946        18.38237        -0.66625
C         18.51914        20.50994        -0.89771
C         17.37300        21.33349        -0.94285
C         18.55539        23.62064        -0.88594
C         17.35512        22.78778        -0.86605
C         18.52960        24.99218        -0.45837
C         17.26666        25.64726        -0.28206
C         18.46571        27.81836         0.06404
C         17.24433        27.09368        -0.07106
C         18.44539        29.24160         0.21645
C         17.21889        29.93111         0.09920
C         19.73736         4.27229        -0.07861
C         20.89913         6.37461         0.60850
C         19.73890         5.61755         0.39779
C         20.86151         7.72396         0.97907
C         19.66018         8.44722         1.20285
C         20.83476        10.63497         1.39607
C         19.63898         9.85574         1.33816
C         20.81412        12.01000         1.37230
C         19.60601        12.73203         1.02513
C         20.73449        14.94880         1.01913
C         19.65521        14.13248         0.66507
C         20.75732        16.31048         0.73059
C         19.63058        16.96947         0.13960
C         20.92124        19.00177        -0.39486
C         19.69656        18.38524        -0.22598
C         20.99268        20.26385        -1.03630
C         19.82641        20.94414        -1.30305
C         20.98634        23.91420        -1.31200
C         19.79999        23.19599        -1.42112
C         20.96955        25.16975        -0.71228
C         19.74814        25.73959        -0.33361
C         20.88897        27.86884         0.32517
C         19.72090        27.14566         0.05025
C         20.85266        29.25809         0.53798
C         19.65772        29.94689         0.44573
O         13.95986         5.42602         1.25356
O         19.88659        22.02796        -2.18070
O          1.80185        23.03537         1.56020
O         14.28573        10.35709        -0.89699
O         16.74866         9.00476         2.50753
O          8.78987        15.54145         1.82710
O         15.26254        18.42521        -2.09405
O         13.63353        28.66102         1.30721
O         18.40881         6.55186         2.21785
O          7.58095        21.88786        -1.97529
O         18.83013        14.38312        -1.56302
H         18.30401        15.01851        -2.11446
O         17.21317        16.51338        -2.14181
H         16.46473        17.03971        -2.52494
O         13.27175        11.88402         2.29177
H         12.34426        11.62420         2.48205
O          0.91413        16.28822        -1.73124
H          0.79506        17.23428        -2.00723
O          7.26006         5.84176        -2.90165
H          7.20955         6.81375        -3.08195
O         11.10955        27.79169         2.13997
H         11.94992        28.24915         2.38444
O         14.34120        25.59511        -1.90325
H         15.08051        25.94332        -2.44330
O         15.93494        20.82740        -2.68305
H         15.38910        20.08018        -3.02447
O          0.67505         5.97617        -1.15945
H          0.69233         5.01138        -1.33838
O          3.77986        19.40946        -1.92693
H          4.04480        18.57573        -2.37037
O          3.81013        11.84792         2.06146
H          3.68292        12.74278         2.44335
O          5.75383        23.64870        -2.30863
H          6.13067        22.85280        -2.75261
O         14.04243        24.86375         1.67368
H         13.24393        24.60997         2.19069
O         10.44235        23.09079        -1.95866
H          9.73786        22.78151        -2.56914
O          8.65032         2.12742        -1.18248
H          8.74503         2.11699        -0.20828
O         11.13444        25.00793         2.10972
H         11.05100        25.98194         2.30664
O          7.25213        19.04268         1.98186
H          6.33379        18.83585         2.26113
O          9.63733        12.69295        -1.81207
H         10.17629        13.44200        -2.16242
O          3.84925        20.27754         1.63793
H          3.56228        21.09205         2.10410
O         18.40149        10.90583         3.07132
H         18.01038        10.11025         3.50353
O          7.34624         8.65796        -2.63236
H          8.17307         9.12463        -2.88518
O          5.85900        10.96020        -2.12873
H          6.09518        10.13116        -2.61102
O         10.74909        22.63480         1.61640
H         10.88313        23.27333         2.35524
O          4.83423        27.26966        -1.98891
H          4.83613        28.23599        -2.16135
O         17.44020        12.14530        -1.13429
H         18.08191        12.78452        -1.54761
O          0.91002        19.03210        -1.93153
H          1.73100        19.35327        -2.37532
O         14.94445         4.84687        -2.21391
H         15.01883         4.09212        -2.83581
O         14.81031        14.38257         2.23242
H         14.21922        13.69977         2.62914
O         11.04497        15.03209        -1.57226
H         11.88773        15.46722        -1.82846
O          8.95620        11.85636         1.67787
H          8.21049        11.42515         2.14584
H          1.70734         2.32048         1.04925
H         -0.29759         3.53280         1.90293
H         -0.61423         5.93423         1.46917
H         -0.84619         7.83986         0.78460
H         -0.88422        10.28820         0.83887
H         -0.95553        12.18330         0.21355
H         -0.93152        14.62490        -0.09434
H         -0.72202        16.56181         0.91807
H         -0.73476        19.01931         0.70630
H         -0.87399        20.83926        -0.65509
H         -0.93809        23.26462        -0.36869
H         -0.94153        25.14988         0.47356
H         -0.92287        27.62042         0.60511
H          0.32759        29.75200         0.63009
H          4.01984         2.38124         0.17945
H          2.47351        30.99284         0.47928
H          6.36602         2.43764        -0.57195
H          4.93020        30.99144         0.16893
H          8.62628         3.46602        -2.74332
H          7.42681        30.97106         0.07870
H         11.08782         2.44205        -1.32779
H          9.85560        30.90740        -0.23511
H         13.57151         2.43728        -1.09633
H         12.08878        30.94178        -0.63036
H         16.20666         2.50234        -1.00394
H         14.89332        30.94721        -0.81324
H         18.62115         2.52981        -0.63219
H         17.22123        31.03096         0.11258
H         20.70514         3.77927        -0.25541
H         21.87728         5.91253         0.40847
H         21.82058         8.25683         1.03287
H         21.80950        10.13086         1.46239
H         21.76652        12.55303         1.43865
H         21.58426        14.52070         1.56945
H         21.63610        16.89732         1.02897
H         21.85463        18.46835        -0.17269
H         21.95306        20.65106        -1.39847
H         21.90954        23.49976        -1.73590
H         21.90443        25.73827        -0.63650
H         21.86090        27.36056         0.37795
H         21.78736        29.79639         0.74825
H         19.62784        31.03867         0.57021
