         236
 CSIRO Nanostructure Databank - Neutral Graphene Oxide Data Set
C        -11.12937         0.68464         0.01339
C         -9.91440         1.43225         0.24350
C         -8.75143         0.72192         0.63723
C         -7.56231         1.50006         0.98312
C         -6.22373         0.73193         1.14263
C         -5.00272         1.48757         0.88861
C         -3.73721         0.75088         0.76120
C         -2.47832         1.50451         1.07999
C         -1.19318         0.75493         1.28194
C          0.06217         1.40017         0.83018
C          1.25416         0.70129         0.79224
C          2.48194         1.31668         0.33160
C          3.70520         0.58056         0.31054
C          4.98236         1.17874        -0.27671
C          6.17873         0.68748         0.52279
C          7.43372         1.34131         0.01394
C          8.52226         0.49231        -0.36029
C         10.35112         1.60998        -0.04798
C         11.29578         0.64117         0.51540
C         -9.89042         2.84091         0.12325
C         -8.69840         3.58923         0.25695
C         -7.48259         2.91381         0.60275
C         -6.24979         3.58825         0.57023
C         -4.99141         2.87539         0.68812
C         -3.75342         3.55242         0.39103
C         -2.47062         2.87632         0.51077
C         -1.28147         3.48197         0.18742
C          0.04437         2.90610         0.66691
C          1.26091         3.43289        -0.07374
C          2.42699         2.69576        -0.12938
C          3.67604         3.25546        -0.81098
C          4.98599         2.69265        -0.28119
C          6.14431         3.39634        -0.02262
C          7.45808         2.72714         0.01599
C          8.70839         3.50798         0.07666
C          9.99093         2.84049         0.41159
C         -8.66433         5.00468         0.06639
C         -7.47202         5.71742         0.13481
C         -6.22855         4.99955         0.31874
C         -5.00023         5.66938         0.22719
C         -3.76267         4.95434         0.14030
C         -2.55342         5.61274        -0.25358
C         -1.39978         4.71801        -0.67717
C         -0.09478         5.47858        -0.93197
C          1.21404         4.92332        -0.36516
C          2.41591         5.49484        -1.09607
C          3.70884         4.76364        -0.88365
C          4.89336         5.54321        -0.40485
C          6.12891         4.87990         0.11270
C          7.43073         5.67427         0.10832
C          8.67877         4.87913         0.07325
C         -7.44103         7.15546        -0.04361
C         -6.26562         7.85854        -0.02674
C         -4.99496         7.13434         0.17131
C         -3.70668         7.82489        -0.15999
C         -2.50815         7.00603        -0.46926
C         -1.34264         7.71058        -0.83583
C         -0.10382         6.97941        -1.15288
C          1.16832         7.82693        -1.35846
C          2.45045         6.99106        -1.26961
C          3.65895         7.68714        -0.74869
C          4.62116         6.95407        -0.11699
C          6.51024         8.00499        -0.07922
C          7.47703         7.08965        -0.37929
C         -6.17549         9.30770        -0.15498
C         -5.01265         9.94480        -0.42529
C         -3.75945         9.19310        -0.80826
C         -2.45031         9.88533        -0.53163
C         -1.28564         9.15013        -0.61140
C          0.00653         9.77726        -0.38144
C          1.19822         9.13719        -0.60336
C          2.46932         9.80957        -0.46731
C          3.67438         9.14315        -0.56984
C          4.95158         9.85581        -0.63089
C          6.22310         9.34481        -0.57694
C        -11.14790        -0.67521         0.11378
C         -9.95703        -1.43186         0.41634
C         -8.72728        -0.70415         0.71035
C         -7.52460        -1.41685         0.90680
C         -6.26670        -0.73824         0.97129
C         -5.07054        -1.44947         0.83408
C         -3.77473        -0.73499         0.71850
C         -2.53778        -1.47580         1.11608
C         -1.25928        -0.75425         1.41682
C          0.03680        -1.58182         1.36462
C          1.29878        -0.69991         1.29489
C          2.59836        -1.44930         1.25154
C          3.80112        -0.76032         0.72002
C          5.06300        -1.48305         0.71966
C          6.24640        -0.81210         0.56958
C          7.56662        -1.47218         0.70902
C          8.69426        -0.80152         0.04110
C         10.02345        -1.48645        -0.24602
C         11.14583        -0.70749         0.46109
C         -9.95769        -2.81493         0.31194
C         -8.76989        -3.59784         0.47769
C         -7.54447        -2.92782         1.06185
C         -6.26122        -3.59304         0.60325
C         -5.08256        -2.87199         0.62608
C         -3.80258        -3.50090         0.12599
C         -2.50891        -2.91784         0.69914
C         -1.22041        -3.51910         0.20837
C          0.02113        -2.57498         0.15023
C          1.33266        -3.35115         0.16960
C          2.51306        -2.93536         0.99562
C          3.81848        -3.64261         0.76657
C          5.11293        -2.93981         1.16608
C          6.37028        -3.68674         0.71239
C          7.64747        -2.96997         0.89413
C          8.90661        -3.65644         0.48883
C          9.99528        -2.96801         0.08650
C         -8.75318        -4.94252         0.17690
C         -7.52847        -5.71469         0.10997
C         -6.28081        -5.00525         0.22317
C         -5.09619        -5.68157        -0.06201
C         -3.79093        -5.02716         0.30139
C         -2.65251        -5.51846        -0.55003
C         -1.38465        -4.79651        -0.57209
C         -0.39440        -5.41195        -1.30507
C          1.48470        -4.40054        -0.65810
C          2.65339        -5.28251        -0.79436
C          3.91275        -4.72796        -0.25916
C          5.16362        -5.55055        -0.37347
C          6.39234        -4.94804         0.17332
C          7.58710        -5.79538         0.18094
C          8.89600        -5.16984         0.66483
C         -7.51580        -7.09481        -0.11446
C         -6.29875        -7.81454        -0.30853
C         -5.07809        -7.08131        -0.36769
C         -3.86110        -7.75625        -0.67773
C         -2.67460        -6.96412        -1.03470
C         -1.37736        -7.62047        -1.24076
C         -0.23769        -6.84182        -1.43222
C          1.10236        -7.48017        -1.11898
C          2.42684        -6.78250        -0.79982
C          3.69359        -7.61719        -0.43451
C          5.06029        -6.98893        -0.74874
C          6.32262        -7.85562        -0.70234
C          7.49847        -7.13600        -0.04974
C         -6.22502        -9.23441        -0.45348
C         -5.01756        -9.88518        -0.62741
C         -3.79279        -9.15850        -0.76863
C         -2.51376        -9.78787        -1.00175
C         -1.33436        -9.06521        -1.16822
C         -0.03210        -9.68884        -1.28979
C          1.14448        -8.97171        -1.25180
C          2.41854        -9.66295        -1.16163
C          3.60783        -9.07353        -0.82163
C          4.80661        -9.83572        -0.48433
C          6.01361        -9.26471        -0.25384
O          6.66742         5.41075         1.34781
O         -4.13581         7.76453         1.22030
O         10.29611        -1.43398        -1.66895
H         10.23755        -0.48465        -1.93194
O          1.33563         5.56724         0.95361
H          0.93134         4.96730         1.63361
O         -3.04689        -5.85507        -1.92420
O          2.11573        -0.87104         2.49862
O         -0.13494         6.00460        -2.28095
O          3.57107         2.80547        -2.20478
H          4.06871         3.46089        -2.74617
O         10.01389        -5.78268         0.03195
H          9.93229        -5.65411        -0.93511
O          5.11537         0.69018        -1.62924
H          4.47425         1.20625        -2.18023
O         -3.61508         0.02574        -0.53448
O          3.75025        -7.62550         1.02331
H          2.82818        -7.76355         1.34698
O         -6.99058         1.19885         2.29792
O          2.98613        -3.94139         1.94225
O          1.09088         8.27411        -2.73935
H          1.18287         7.46157        -3.28915
O         -1.83113         4.18348        -1.97283
H         -1.54859         4.84317        -2.65124
O          6.76079        -8.03527        -2.08554
H          6.56724        -7.18231        -2.54247
O          9.55845         1.09943        -1.10642
O          2.42891         6.07606        -2.43023
O          0.16531        -2.34715         2.55585
H         -0.73004        -2.43845         2.95843
O          5.47719         7.57980         0.79374
O          0.63162        -4.57858        -1.74875
O          5.97188         1.12645         1.89399
H          6.53713         0.58390         2.48338
O         -3.84252         8.94374        -2.24978
H         -3.66065         9.78685        -2.71488
O         -3.73602        -3.20513        -1.29148
H         -4.41517        -3.73826        -1.75646
O          4.71584         5.21990        -1.83990
O          7.80489        -2.07219         2.03780
O         -0.07626        -1.77992        -1.04388
H          0.02081        -2.37942        -1.81673
O          3.50537        -4.44082        -1.65964
O         -1.72412        -3.75760         1.56887
O          0.15584         3.41547         2.06660
H         -0.52504         2.92513         2.59269
O          5.20402        -2.90966         2.60664
H          4.32238        -3.18346         2.96005
O         -1.88716         1.42347         2.41636
O         -7.63773        -3.17741         2.51622
H         -7.03697        -2.54419         2.96399
O          1.44584        -7.06164         0.26850
O         -3.55680        -5.41221         1.67195
H         -4.29501        -5.07308         2.21929
O         -2.13654        -1.20753         2.49533
O          5.23146        -6.02012        -1.79739
H         11.91276        -1.31589         0.96838
H         12.13592         1.04788         1.10251
H         10.61966         3.33966         1.16510
H          9.62838         5.43121         0.15100
H          8.29440         7.35403        -1.06530
H          7.06474        10.00198        -0.84738
H          4.86164        10.92652        -0.88124
H          2.46044        10.89245        -0.26679
H          0.00512        10.80579         0.01177
H         -2.41581        10.96819        -0.33893
H         -5.00004        11.04340        -0.50404
H         -7.09790         9.89114        -0.00815
H         -8.39601         7.68108        -0.19545
H         -9.60515         5.53579        -0.14132
H        -10.82157         3.36635        -0.13576
H        -12.04503         1.23630        -0.24429
H        -12.08005        -1.22953        -0.07076
H        -10.87671        -3.32501        -0.01761
H         -9.69337        -5.43996        -0.11059
H         -8.46924        -7.64410        -0.14218
H         -7.15354        -9.82157        -0.39704
H         -4.99658       -10.98252        -0.69949
H         -2.47020       -10.88775        -1.00762
H          0.01592       -10.78849        -1.32567
H          2.39448       -10.75569        -1.30349
H          4.68445       -10.92003        -0.33034
H          6.85934        -9.89726         0.05645
H          8.42382        -7.72890         0.04072
H          8.99158        -5.38088         1.76639
H         10.90302        -3.53600        -0.17587
