         576
 CSIRO Nanostructure Databank - Neutral Graphene Oxide Data Set
C          5.75478        19.05918        -0.65428
C          5.80857        20.43799        -0.05707
C          4.56275        21.29737        -0.16360
C          5.87121        23.33433         0.30533
C          4.61704        22.63604         0.03761
C          5.96663        24.65671         0.66976
C          8.12198        14.78683        -1.03616
C          8.12934        16.20027        -1.11553
C          6.93570        16.95007        -1.05875
C          8.23009        19.05478        -0.90806
C          6.94355        18.36529        -0.90469
C          8.28648        20.47685        -0.69681
C          6.98536        21.23609        -0.61604
C          8.42834        23.21142         0.24094
C          7.09647        22.51736         0.18457
C          8.41801        24.64440         0.50521
C          7.24646        25.32667         0.81376
C          8.54148        27.35556         1.41032
C          7.32988        26.73563         1.14820
C          8.66909        28.72538         1.77093
C         10.60455        10.65787        -0.00669
C         10.57308        11.93806        -0.60142
C          9.34834        12.66284        -0.71345
C         10.57418        14.73488        -1.21375
C          9.32336        14.04150        -1.01389
C         10.60400        16.12131        -1.24962
C          9.39820        16.89568        -1.13921
C         10.74242        19.03411        -0.86879
C          9.41800        18.30686        -1.03571
C         10.67436        20.48891        -1.36001
C          9.48921        21.17985        -0.74107
C         10.85363        23.19915        -0.34136
C          9.61964        22.55425        -0.35110
C         10.94891        24.62183         0.05854
C          9.70893        25.35935         0.47526
C         11.08986        27.24154         1.39559
C          9.78801        26.49783         1.47037
C         11.15286        28.57739         1.77746
C          9.91373        29.32809         1.99610
C         11.23930        31.31338         2.61463
C         10.01174        30.66296         2.47951
C         11.36612        32.60048         3.22593
C         13.13643         7.00565         2.13792
C         13.09634         8.11480         1.20860
C         11.88109         8.74171         0.89693
C         13.01228        10.50674        -0.41813
C         11.81937         9.96096         0.14405
C         12.99631        11.78249        -1.02376
C         11.79481        12.51358        -1.07526
C         13.12359        14.61913        -1.69313
C         11.79628        13.93144        -1.49183
C         13.20503        16.06122        -1.30358
C         11.92139        16.81473        -1.17843
C         13.17077        18.98832        -1.78400
C         11.90279        18.27777        -1.48497
C         13.18427        20.49244        -1.64312
C         11.99420        21.19072        -1.13471
C         13.37720        23.13832        -0.43540
C         12.08293        22.49410        -0.67119
C         13.41895        24.42608         0.25320
C         12.26408        25.12941         0.51149
C         13.64073        27.04127         1.56254
C         12.28945        26.39128         1.29225
C         13.65066        28.49218         1.91424
C         12.41022        29.24758         1.95649
C         13.65192        31.39910         2.07354
C         12.46214        30.64327         2.22526
C         13.66744        32.81290         2.39791
C         12.54442        33.32914         3.19521
C         13.42063        35.57484         3.85135
C         12.65767        34.47489         4.10646
C         13.94438        36.61546         4.72037
C         15.57253         6.89695         1.98267
C         14.31384         6.42448         2.50411
C         15.55086         7.98980         1.02805
C         14.31428         8.56618         0.62521
C         15.49802        10.44039        -0.41422
C         14.24703         9.63106        -0.45371
C         15.47373        11.87885        -0.82153
C         14.27628        12.32081        -1.65721
C         15.59034        14.47488        -2.06380
C         14.39331        13.85320        -1.77482
C         15.74640        15.99545        -1.91755
C         14.52721        16.77026        -1.48261
C         15.71887        19.01557        -1.83890
C         14.46908        18.30234        -1.37532
C         15.75726        20.40546        -1.62431
C         14.50755        21.19048        -1.51431
C         15.86174        23.07556        -0.66873
C         14.55913        22.49273        -0.82446
C         15.98588        24.28054         0.17636
C         14.74386        24.97794         0.67752
C         15.99349        27.20023         0.75251
C         14.84675        26.42440         1.01394
C         16.01872        28.60527         0.91114
C         14.95179        29.29349         1.61356
C         15.98105        31.48293         1.21888
C         14.85066        30.76631         1.57424
C         15.97223        32.97551         1.29613
C         14.82600        33.53985         2.09311
C         16.22935        35.39853         2.92579
C         15.01000        34.90264         2.48467
C         16.33414        36.55921         3.80533
C         15.20475        37.11259         4.56702
C         18.04202         6.79118         1.85970
C         16.78393         6.33585         2.36835
C         18.05077         7.90749         0.91782
C         16.78876         8.46177         0.52818
C         18.03702        10.28960        -0.73954
C         16.74108         9.65990        -0.31867
C         17.93047        11.73530        -1.04731
C         16.74694        12.36739        -1.46042
C         18.10738        14.07517        -2.48690
C         16.81745        13.64956        -2.05748
C         18.22336        16.30925        -2.77206
C         16.83621        16.88512        -2.61752
C         18.14168        18.99884        -1.99223
C         16.90808        18.30337        -2.05944
C         18.17552        20.39152        -1.84852
C         16.97635        21.10868        -1.65335
C         18.27670        23.20383        -1.25172
C         17.00827        22.49009        -1.21438
C         18.33991        24.50292        -0.75483
C         17.26760        25.04976         0.09296
C         18.42285        27.34831        -0.06121
C         17.26021        26.53276         0.35896
C         18.40360        28.74105         0.10072
C         17.06009        29.43801         0.18530
C         18.33866        31.58760         0.54955
C         17.16983        30.85533         0.70530
C         18.46964        32.90088         1.17553
C         17.31997        33.50978         1.72948
C         18.70868        35.15828         2.84735
C         17.42798        34.67170         2.52666
C         18.87492        36.32613         3.78792
C         17.58536        37.01708         4.14200
C         20.50953         6.62307         1.75585
C         19.24463         6.22094         2.28225
C         20.51124         7.62065         0.66433
C         19.27521         8.37485         0.41118
C         20.67842        10.30594        -0.35100
C         19.38720         9.51898        -0.58254
C         20.82010        11.64724        -0.20800
C         19.01204        12.60003        -0.88838
C         20.65110        14.07058        -2.00752
C         19.27728        13.61001        -1.82781
C         20.70454        16.28338        -2.53127
C         19.41208        16.91823        -2.47188
C         20.70872        18.98149        -1.86494
C         19.40472        18.22000        -1.70836
C         20.72272        20.37248        -1.86688
C         19.44984        21.12869        -2.16915
C         20.70686        23.22476        -1.74571
C         19.48378        22.55839        -1.70546
C         20.72085        24.69055        -1.67278
C         19.47258        25.35376        -1.08905
C         20.81795        27.40043        -0.61484
C         19.59160        26.71072        -0.53138
C         20.82674        28.78946        -0.28360
C         19.60051        29.46407        -0.04168
C         20.85151        31.72464        -0.10225
C         19.55568        30.94524        -0.01205
C         20.81928        33.25108         0.25831
C         19.73492        33.53116         1.31383
C         21.13557        35.29064         2.38201
C         19.84857        34.61812         2.21224
C         21.08798        36.73529         2.69054
C         19.92283        37.26373         3.25401
C         22.99337         6.63172         1.85872
C         21.70870         6.10250         2.23100
C         23.08769         7.69785         0.93149
C         21.91601         8.18359         0.20470
C         23.08067        10.42714         0.16719
C         21.99681         9.55401        -0.51098
C         23.17841        11.82130        -0.43051
C         21.97024        12.44649        -0.61497
C         23.06713        14.60750        -1.24417
C         21.81826        13.69724        -1.36187
C         23.14564        15.96470        -2.09804
C         21.87956        16.82178        -2.03648
C         23.18370        18.94665        -1.85979
C         21.93255        18.25152        -1.84547
C         23.19655        20.37513        -1.86912
C         21.96082        21.08612        -1.85461
C         23.19944        23.20747        -1.93744
C         21.96438        22.51282        -1.84396
C         23.20483        24.71355        -2.12159
C         21.99908        25.40742        -1.52768
C         23.33742        27.31334        -0.73089
C         22.02700        26.68949        -1.04868
C         23.32444        28.72486        -0.18198
C         22.06876        29.52813        -0.20661
C         23.36563        31.61162        -0.01351
C         22.09822        30.90743        -0.06292
C         23.38680        33.02767         0.26755
C         22.18546        33.85960         0.63885
C         23.32957        35.56193         1.28401
C         22.27802        34.67997         1.91425
C         23.45500        36.91623         2.00193
C         22.13538        37.56520         2.24481
C         25.44661         6.76501         2.34708
C         24.17399         6.16559         2.50624
C         25.58194         7.89515         1.45183
C         24.39409         8.32698         0.70347
C         25.58979        10.63151         0.53455
C         24.41894         9.74053         0.17674
C         25.61207        11.85422        -0.36038
C         24.43533        12.44550        -0.76024
C         25.67463        14.51467        -1.66271
C         24.37046        13.79090        -1.42793
C         25.68578        16.02749        -1.54491
C         24.37584        16.76926        -1.63713
C         25.65202        18.93880        -1.86354
C         24.41948        18.24004        -1.84908
C         25.67695        20.36655        -1.99420
C         24.43217        21.08377        -1.97951
C         25.63737        23.23450        -2.57107
C         24.40456        22.50526        -2.08074
C         25.68046        24.68815        -2.13937
C         24.53478        25.34919        -1.77973
C         25.78475        27.41723        -1.29833
C         24.58285        26.72448        -1.30067
C         25.86593        28.76847        -0.68727
C         24.62819        29.45504        -0.15399
C         25.78348        31.66747        -0.51616
C         24.57514        30.92846        -0.12748
C         25.73369        33.17416        -0.47293
C         24.57477        33.71425         0.22074
C         25.71691        35.91533         0.42600
C         24.71210        34.94110         1.07785
C         25.80493        37.24184         1.15758
C         24.64667        37.77701         1.65570
C         27.84630         6.92596         2.94693
C         26.57202         6.29805         3.06597
C         27.90209         8.27483         2.26786
C         26.78700         8.58441         1.30724
C         28.08022        10.53862         0.47679
C         26.87754         9.85960         0.61654
C         28.14504        11.86761        -0.08111
C         26.92254        12.41004        -0.73177
C         28.23979        14.53604        -1.35599
C         26.95812        13.76138        -1.39593
C         28.20822        16.04467        -1.55593
C         26.93617        16.80179        -1.67461
C         28.13781        18.96618        -1.80335
C         26.91145        18.20586        -1.76266
C         28.17252        20.36859        -1.99138
C         26.92433        21.09768        -2.09083
C         28.17040        23.22543        -2.38234
C         26.94186        22.50338        -2.27524
C         28.14741        24.65819        -2.89171
C         26.87109        25.51277        -2.58487
C         28.20411        27.50463        -1.83258
C         27.01512        26.81544        -1.80377
C         28.22038        28.97815        -1.67246
C         27.00499        29.64013        -1.11852
C         28.28970        31.83379        -0.96317
C         27.13706        30.99385        -0.43309
C         28.27243        33.26702        -0.81878
C         26.96546        34.02677        -0.72676
C         28.16706        36.19786        -0.26563
C         27.08818        35.22160         0.24291
C         28.24907        37.36869         0.69078
C         27.08757        37.90507         1.21969
C         30.37277         6.86457         3.19579
C         28.97767         6.40342         3.53385
C         30.44626         8.22476         2.53431
C         29.27309         8.63028         1.72487
C         30.56206        10.68747         0.94694
C         29.33990         9.87613         0.89009
C         30.53969        11.95969         0.44664
C         29.34158        12.58406        -0.11290
C         30.50841        14.76119        -0.42269
C         29.40129        13.95222        -0.64208
C         30.54483        16.19029        -0.69492
C         29.38781        16.81021        -1.13955
C         30.66552        18.96280        -1.46637
C         29.39101        18.20787        -1.60373
C         30.69653        20.40287        -1.85335
C         29.41941        21.11273        -2.12149
C         30.70425        23.24779        -2.49804
C         29.41576        22.50134        -2.33365
C         30.76215        24.74220        -2.75071
C         29.45619        25.55838        -2.93898
C         30.72577        27.65229        -2.21368
C         29.50614        26.74179        -1.94824
C         30.66496        29.07849        -1.81804
C         29.48940        29.73863        -1.58567
C         30.63601        31.97993        -1.74831
C         29.44573        31.17744        -1.35045
C         30.67158        33.50458        -1.58555
C         29.42575        34.05407        -0.91468
C         30.68905        36.00766        -0.12203
C         29.45954        35.41663        -0.46391
C         30.70684        37.29349         0.55936
C         29.53215        37.93303         0.94163
C         32.52444         7.46553         4.28609
C         31.39182         6.72977         4.29788
C         32.73377         8.57105         3.35621
C         31.61387         8.92857         2.48685
C         32.87457        11.00245         1.90280
C         31.83805        10.01066         1.44400
C         32.81988        12.26999         1.40153
C         31.84608        12.69462         0.33376
C         32.79975        15.04501         0.66055
C         31.62722        14.19045         0.34938
C         32.87807        16.43647         0.23524
C         31.74824        16.99660        -0.40369
C         32.92182        19.14887        -0.37242
C         31.78437        18.37999        -0.69802
C         32.83890        20.67490        -0.42494
C         31.94627        21.16454        -1.54553
C         33.12219        23.42106        -1.46626
C         31.96983        22.61373        -1.93001
C         33.19854        24.75862        -1.75299
C         32.06414        25.45448        -2.41904
C         33.32259        27.61528        -1.82080
C         32.06973        26.96144        -2.29963
C         33.21860        29.05094        -1.45454
C         31.93855        29.79665        -1.58308
C         33.23187        32.09807        -2.00882
C         31.94021        31.26327        -1.91825
C         33.16463        33.37030        -1.17020
C         31.95960        34.02858        -0.96719
C         33.15656        35.86914         0.14823
C         31.92692        35.29832        -0.31022
C         33.14158        37.17394         0.77019
C         31.97716        37.85410         0.95070
C         33.88636         9.32608         3.41145
C         35.04174        11.48907         3.06150
C         33.99193        10.62500         2.77513
C         34.82529        12.97589         2.86108
C         33.85812        13.17827         1.74480
C         35.25250        15.05865         1.50594
C         34.00850        14.38128         1.13194
C         35.23878        16.55249         1.25657
C         34.05714        17.15769         0.51615
C         35.35056        19.29587         0.01923
C         34.06965        18.52292         0.15836
C         35.22145        20.75904         0.46396
C         34.15899        21.42557        -0.39659
C         35.53649        23.48815        -0.76803
C         34.22512        22.73198        -0.78470
C         35.45573        25.00159        -0.54584
C         34.56263        25.44065        -1.70392
C         35.73087        27.71845        -1.25874
C         34.52083        26.96212        -1.69135
C         35.73983        29.14408        -1.26372
C         34.47434        29.86091        -1.35320
C         35.80158        32.07439        -1.78737
C         34.47808        31.34146        -1.58580
C         35.66200        33.37853        -1.04626
C         34.41472        33.93978        -0.71796
C         34.36117        35.18858        -0.03420
C         35.85509        14.12729         2.62697
C         37.80990        15.10939         1.42910
C         36.57046        14.28208         1.31882
C         37.82933        16.46774         1.43210
C         36.56992        17.24424         1.12653
C         37.77155        19.22635         0.17189
C         36.61003        18.56937         0.44812
C         37.89265        20.69137         0.36819
C         36.59519        21.43593         0.45778
C         37.89470        23.58310         0.34207
C         36.51740        22.94470         0.32368
C         37.92057        24.98011         0.21113
C         36.90769        25.58961        -0.72691
C         38.18984        27.79418        -0.63016
C         36.87128        27.08072        -0.77731
C         38.05388        29.26985        -0.44572
C         36.90273        29.93185        -0.89588
C         36.90734        31.33604        -1.09658
C         39.00758        17.21731         1.93831
C         40.33003        19.40768         1.74682
C         39.46190        18.33438         1.30561
C         40.27122        20.71984         1.33014
C         39.25506        21.38706         0.36506
C         40.18637        23.63927         1.16316
C         39.06941        22.88031         0.69527
C         40.16003        25.03516         1.17907
C         39.07359        25.74369         0.57795
C         39.11400        27.12727         0.34889
C         41.32971        21.57939         1.83290
C         41.33193        22.93027         1.70341
O         17.71950        25.56065         1.38288
O         28.52607        15.11717        -2.66549
O         20.04242        31.48865        -1.30536
O         31.69453        14.81223         1.66584
O         35.92421        23.49039        -2.20034
O         31.70013        22.65851        -3.36568
O         10.25570        25.58189        -0.86162
O         27.08797        12.55736        -2.19721
O         30.36137        18.24210        -2.72325
O         25.45612        32.43994        -1.71924
O         28.00380        24.11900        -4.21883
O         15.54271        16.30681        -0.51072
O         35.27559        24.76718        -2.82697
O         24.93728        16.44301        -0.33243
O         20.78271        14.99468        -3.06871
O         12.64816        16.38329         0.02590
O         21.20688         7.16988        -0.54797
O         19.75539        12.42169         0.25636
O         17.24839         9.53266        -1.72483
O         13.76939        21.19188        -2.80099
O         27.45384         9.27330         3.19542
O         34.37733        30.85483        -0.23337
O         15.51236        24.06538         1.54164
O         31.09838        31.53562        -3.07762
O         31.45511        27.56621        -3.47647
O         22.55472        35.25479         0.00994
O         18.21915        15.07898        -3.46377
O         29.50028         8.51482         0.28604
O          7.89304        22.41788         1.38850
O         31.74871        25.02917        -3.77739
O         14.62680        28.78227         2.94931
O         12.28849        14.27919        -2.86178
O         37.28640        21.03550         1.67338
O         27.21822        29.66114        -2.54420
O         24.65061         8.67643        -0.73697
O         13.87984        35.71943         2.52511
O         24.93713        13.90403        -2.75741
O         19.75121        25.34056        -2.54342
O         31.86981        20.40723        -2.77184
O         35.90873        23.30607         1.56073
O         38.96207        18.52161         0.00046
O         32.40060        29.35159        -0.25358
O         12.32589        18.51979        -2.87745
O         23.34567        27.58668         0.72792
O         35.72088        17.37847         2.35041
O         12.97495        26.22450         2.59676
O         25.61579        28.84414         0.76460
O         19.33132        17.86049        -0.33499
O         15.77576        33.45634        -0.08766
H         15.77471        34.43716        -0.06160
O         27.43187        30.78376         0.96763
H         26.80025        30.09623         1.30433
O         23.37649        15.68889        -3.48553
H         22.61059        15.17689        -3.83027
O         19.64081         8.92309        -1.88939
H         18.77936         8.57404        -2.21985
O         39.80123        21.32799        -0.96824
H         40.68737        21.74542        -0.96016
O         29.74387        26.13560        -0.63897
H         29.70855        26.83362         0.04941
O         14.44948        18.57255         0.06189
H         15.11174        17.97284         0.47809
O         19.42745        21.20961        -3.64646
H         20.10457        21.86407        -3.92397
O          6.06682        20.21628         1.36000
H          5.26508        19.82411         1.76331
O         20.38056        33.96385        -0.90793
H         19.89841        33.32283        -1.48255
O         35.51616        19.44738        -1.43610
H         35.41732        18.57075        -1.86390
O         32.15334        21.04707         0.81095
H         32.83334        20.96288         1.52984
O         23.07605        24.91124        -3.56729
H         23.86829        24.49091        -3.98693
O         23.01389        14.97530         0.14858
H         22.23684        15.55353         0.29997
O         32.42691        12.36062        -0.95738
H         32.58603        11.39014        -0.96257
O         19.40216        35.77710         5.05364
H         19.59490        36.53286         5.64746
O         25.17843        36.21767        -0.87356
H         25.87709        36.70806        -1.37039
O         16.34115        17.03471        -3.98281
H         16.71115        16.30000        -4.52001
O          6.63738        21.58048        -1.98441
H          7.46053        21.76171        -2.48542
O         36.11229        32.25657        -3.18823
H         35.30395        32.61180        -3.62682
O         11.02803        19.09498         0.54923
H         11.31193        18.20754         0.85824
O         37.57870        25.28730        -2.01074
H         36.91151        25.36742        -2.74090
O         26.45064        26.03564        -3.88174
H         26.93275        25.48327        -4.55363
O         30.65382        34.07322        -2.93098
H         29.92249        33.64794        -3.42761
O         26.79636        34.53895        -2.08332
H         26.30321        33.84536        -2.58414
O         25.35880        11.09490         1.91604
H         25.99486        10.60825         2.50658
O         27.62517        34.75444         1.48874
H         26.88842        34.39075         2.04344
O         22.32694         9.36939        -1.88291
H         21.61367         8.81446        -2.27436
O         34.72862        20.87868         1.81303
H         35.07692        21.76464         2.12436
O          9.78033        25.88450         2.80289
H         10.70387        25.82592         3.13220
O         34.11653        13.37107         4.08557
H         34.64016        13.05545         4.85135
O         34.91849        25.44180         0.67853
H         35.21267        24.77296         1.37291
O         38.89511        27.62112        -1.93649
H         38.71473        26.68352        -2.21456
O         16.58069        29.53726        -1.19939
H         17.15782        30.17530        -1.67179
O         15.35134        12.65594         0.42474
H         16.15890        12.51620         0.96319
O         14.21340         8.94971        -1.76495
H         14.32937         9.65139        -2.44915
O         25.48575        23.24437        -4.02972
H         26.38883        23.50906        -4.38328
O         33.40501        32.50253        -3.38256
H         32.50294        32.70770        -3.73215
O         29.44670        26.13573        -4.23618
H         29.19677        25.40640        -4.85478
O         14.39523        11.72043        -2.96831
H         13.69917        12.11121        -3.53941
O         27.81674        36.80728        -1.53394
H         27.76706        36.08750        -2.20791
O         25.19306        34.45749         2.36036
H         24.87052        35.08937         3.05493
O         36.62414        13.15739         0.47746
H         36.95069        13.42791        -0.40372
O         30.80470         5.91332         2.14735
H         31.70916         6.17678         1.87233
O         10.41669        20.49040        -2.78899
H         11.16343        20.01618        -3.23096
O         23.82634        36.44823         3.39668
H         23.95047        37.25228         3.94630
O         32.36621         9.31751         0.26084
H         31.63428         8.74343        -0.06765
O         22.67662        10.55564         1.55662
H         23.43631        10.97509         2.03456
H          4.80927        18.49318        -0.61320
H          3.59212        20.80754        -0.33953
H          3.69074        23.23141         0.01834
H          5.05159        25.25419         0.80254
H          7.16225        14.26081        -0.92729
H          5.97276        16.41875        -1.02530
H          6.39694        27.31720         1.20814
H          7.75750        29.33423         1.87613
H          9.67616        10.22597         0.39468
H          8.40703        12.15222        -0.46277
H          9.08803        31.19554         2.75162
H         10.49742        33.00849         3.76407
H         12.18563         6.64236         2.55480
H         10.94988         8.35106         1.33419
H         12.14884        34.38221         5.07801
H         13.30881        37.01893         5.52416
H         14.32165         5.58498         3.21470
H         15.49563        37.92621         5.25274
H         16.78432         5.50430         3.08968
H         17.66721        37.84589         4.86537
H         19.22256         5.42449         3.04167
H         19.82157        38.35085         3.39603
H         21.67876         5.32731         3.01153
H         22.05934        38.65827         2.35265
H         24.08025         5.31853         3.20396
H         24.67008        38.78083         2.11362
H         26.47168         5.39207         3.68449
H         27.15508        38.82765         1.81959
H         28.89672         5.46676         4.11084
H         29.59884        38.86028         1.53231
H         33.30317         7.28769         5.04438
H         31.26052         5.92504         5.03704
H         34.09836        37.60843         1.09424
H         31.98099        38.84166         1.43502
H         34.68838         9.01905         4.10172
H         35.84520        11.13822         3.73151
H         36.57353        33.89290        -0.70440
H         35.29985        35.64922         0.30801
H         36.29222        14.60322         3.52027
H         38.73878        14.56170         1.65831
H         38.94711        29.85032        -0.17154
H         37.83885        31.88380        -0.88890
H         39.41175        16.92536         2.91970
H         41.09727        19.15660         2.49925
H         41.03343        25.59266         1.54830
H         39.97903        27.70381         0.71321
H         42.17185        21.08880         2.34519
H         42.17452        23.52142         2.09021
