         657
 CSIRO Nanostructure Databank - Neutral Graphene Oxide Data Set
C          6.02449        31.76681         1.45372
C          6.03012        33.12652         1.54278
C          8.38838        27.49799         0.65563
C          8.35613        28.90271         0.56614
C          7.17351        29.65336         0.91301
C          8.34411        31.79906         0.57640
C          7.17874        31.03846         0.98123
C          8.34804        33.17401         0.67267
C          7.19683        33.89389         1.17812
C          8.40623        36.05704         1.05645
C          7.21241        35.27706         1.26586
C          8.38393        37.43535         1.20568
C         10.71184        23.15870         0.42267
C         10.78780        24.59485         0.15302
C          9.60854        25.34595         0.37712
C         10.75086        27.49849         0.05505
C          9.56937        26.77358         0.34767
C         10.74945        28.91203         0.04346
C          9.53420        29.60955         0.20383
C         10.79199        31.77664        -0.13913
C          9.45262        31.06904        -0.15294
C         10.76045        33.24837        -0.27153
C          9.49704        33.97234         0.17840
C         10.83074        36.03818         0.50012
C          9.61711        35.37581         0.61976
C         10.92792        37.42821         1.00269
C          9.62714        38.19830         1.31013
C         10.90481        40.36691         1.18691
C          9.67870        39.65279         1.22406
C         10.92487        41.77015         1.26543
C         13.22588        18.86351        -0.02722
C         13.13083        20.26401        -0.04412
C         11.85020        20.85053         0.17215
C         13.42615        23.30199        -0.38217
C         11.57446        22.21971        -0.11666
C         13.29354        24.67773        -0.09531
C         12.00287        25.30169        -0.11896
C         13.21210        27.52916         0.12901
C         11.99482        26.78724        -0.39073
C         13.22556        28.92953         0.07154
C         11.99409        29.63880        -0.09981
C         13.25486        31.70252        -0.70490
C         11.97539        31.06750        -0.20184
C         13.25955        33.24604        -0.65991
C         12.02828        34.00713        -0.28677
C         13.27506        36.16593        -0.06663
C         12.02422        35.36197         0.00922
C         13.31738        37.54337         0.47698
C         12.15116        38.23419         0.77939
C         13.38894        40.38755         0.88119
C         12.15153        39.64290         1.01896
C         13.41835        41.79158         0.95075
C         12.17827        42.59345         1.24389
C         13.29604        44.61928         0.09505
C         12.05546        43.74925         0.17022
C         13.24362        45.93179        -0.24363
C         15.78404        14.57523        -0.16050
C         15.73526        15.97733         0.38946
C         14.47519        16.75357         0.09970
C         15.72608        18.86811        -0.37222
C         14.45149        18.11840        -0.05539
C         15.72240        20.29293         0.15025
C         14.42370        21.04305         0.10080
C         15.70964        23.22719         0.32653
C         14.52569        22.53016         0.00722
C         15.69143        24.64537         0.47801
C         14.46654        25.35094         0.35066
C         15.70944        27.55853         0.78462
C         14.36978        26.78695         0.61373
C         15.71027        28.97431         0.40726
C         14.48920        29.67363         0.15512
C         15.77310        31.75501        -0.17231
C         14.52115        31.04411        -0.15991
C         15.80508        33.16034        -0.30321
C         14.58675        33.95476        -0.55078
C         15.84410        36.13417         0.06370
C         14.58334        35.44037        -0.29296
C         15.84229        37.46907         0.29920
C         14.62656        38.18197         0.83911
C         15.80850        40.38556         0.38264
C         14.61397        39.68114         0.69048
C         15.87817        41.80714         0.30812
C         14.67606        42.52574         0.74184
C         15.81462        44.59164        -0.29897
C         14.62558        44.00382         0.34260
C         15.69623        45.98410        -0.85197
C         14.46334        46.72758        -0.37448
C         15.71119        48.85174        -0.11771
C         14.45424        48.07279        -0.20701
C         15.73985        50.29874        -0.28982
C         18.28602        10.36935        -0.98419
C         18.20576        11.76062        -0.67696
C         17.02849        12.48571        -0.59271
C         18.22063        14.59886         0.05696
C         16.98108        13.88593        -0.21198
C         18.25519        16.00226         0.11643
C         17.00243        16.75143         0.08547
C         18.24561        18.89067        -0.05969
C         16.98601        18.11066        -0.02436
C         18.19758        20.33610         0.28201
C         17.02841        21.02793         0.19087
C         18.20170        23.24267         0.67496
C         17.02650        22.53522         0.06777
C         18.17038        24.59988         0.85412
C         16.93549        25.36675         0.71579
C         18.18942        27.50474         0.67440
C         16.95656        26.76591         0.74590
C         18.17787        28.86415         0.40002
C         16.95782        29.62684         0.24685
C         18.29739        31.69804        -0.00390
C         17.01078        31.02393        -0.00044
C         18.37024        33.18452        -0.26007
C         17.05397        33.86469         0.05961
C         18.41361        36.02917         0.10552
C         17.09425        35.34743         0.18492
C         18.40738        37.50932         0.12997
C         17.10866        38.23314         0.27319
C         17.82724        40.35793        -0.89032
C         16.93712        39.66370        -0.07405
C         18.06118        41.73121        -0.83458
C         17.01772        42.47745        -0.22096
C         18.21757        44.55605        -1.00425
C         16.99991        43.90805        -0.46082
C         18.19794        46.02924        -0.97574
C         17.01885        46.68920        -0.68522
C         18.23669        48.88989        -0.64927
C         17.03696        48.10995        -0.33542
C         18.17844        50.27975        -0.51953
C         16.93202        50.98304        -0.33773
C         18.12011        52.99128         0.59021
C         16.91977        52.50799        -0.25963
C         18.22651        54.48963         0.72849
C         20.75337         6.11504        -1.24169
C         20.71759         7.51264        -1.06512
C         19.53016         8.24477        -1.13806
C         20.77619        10.36400        -0.89534
C         19.50509         9.66376        -0.98687
C         20.73954        11.87049        -0.96034
C         19.48852        12.41092        -0.30335
C         20.76211        14.59583         0.04820
C         19.48742        13.86262         0.08031
C         20.73632        15.99922         0.20805
C         19.50260        16.69035         0.17179
C         20.76446        18.86884         0.54047
C         19.54528        18.16040         0.07403
C         20.74686        20.24410         0.77747
C         19.44913        20.98038         0.78229
C         20.70625        23.20429         1.08433
C         19.42309        22.46866         0.99262
C         20.71711        24.56532         1.16372
C         19.42666        25.30546         1.21515
C         20.75738        27.42301         0.68127
C         19.45944        26.81004         1.01211
C         20.73962        28.78012         0.11445
C         19.44789        29.53925         0.07178
C         20.79846        31.67702         0.43614
C         19.48036        31.01135         0.09232
C         20.85858        33.15105         0.13670
C         19.56189        33.86628         0.44941
C         20.92572        36.02336         0.36600
C         19.58468        35.34675         0.15228
C         20.94737        37.51444         0.03783
C         19.66938        38.16301        -0.28758
C         20.79607        40.16883        -1.26316
C         19.68998        39.27516        -1.07813
C         20.60180        41.57352        -1.69799
C         19.18759        42.33867        -1.67416
C         20.56762        44.52480        -1.97664
C         19.33664        43.83788        -1.37033
C         20.59541        46.05798        -1.76675
C         19.40621        46.79282        -1.23301
C         20.61281        49.02391        -1.45427
C         19.41880        48.17291        -1.06714
C         20.69910        50.29267        -0.61926
C         19.44087        51.04738        -0.53822
C         20.69439        52.95185         0.67668
C         19.42519        52.42574         0.04039
C         20.70753        54.46150         0.74682
C         19.45302        55.15731         0.86649
C         20.69913        57.24701         1.29708
C         19.49839        56.57339         1.09360
C         20.68490        58.72947         1.61596
C         23.22513         3.31836        -1.54679
C         22.00644         4.00067        -1.41933
C         23.23103         6.13742        -1.22694
C         21.97078         5.39913        -1.25022
C         23.23784         7.49964        -1.06491
C         21.98767         8.20711        -0.61935
C         23.23975        10.41560        -0.86563
C         21.98538         9.69464        -0.88318
C         23.20987        11.81852        -0.63093
C         22.00430        12.52206        -0.46014
C         23.22235        14.61678         0.14389
C         21.99212        13.89915        -0.09011
C         23.20473        15.98553         0.46590
C         21.96845        16.72116         0.43466
C         23.17342        18.72943         1.31088
C         21.95560        18.10057         0.68786
C         23.16517        20.23539         1.27751
C         21.96814        20.93207         1.17241
C         23.23073        23.17795         1.47082
C         21.91496        22.39994         1.40349
C         23.21416        24.57352         1.03512
C         21.99693        25.37221         1.44818
C         23.18002        27.37001         0.38784
C         21.96400        26.74487         0.80088
C         23.23489        28.75574         0.12438
C         22.01051        29.54019         0.10718
C         23.32590        31.63064         0.06812
C         22.01515        30.89909         0.00819
C         23.28746        33.07949        -0.34969
C         22.05729        33.81263        -0.10568
C         23.25448        35.89671        -0.64021
C         22.09231        35.25766        -0.24245
C         23.23596        37.31954        -1.14787
C         22.13563        38.17634        -0.58097
C         23.25054        40.27418        -1.33850
C         22.04437        39.56137        -1.13905
C         23.22470        41.67762        -1.44302
C         21.94900        42.38509        -1.72998
C         23.14565        44.54329        -1.53811
C         21.92428        43.85648        -1.63841
C         23.17956        45.99533        -1.51234
C         21.91858        46.76742        -1.69576
C         23.19287        48.92621        -1.04880
C         21.93533        48.26120        -1.48449
C         23.18473        50.29066        -0.49250
C         21.92004        50.96160        -0.33773
C         23.17134        53.06371         0.03449
C         21.92261        52.31052         0.10058
C         23.18786        54.51364         0.48027
C         21.91104        55.15779         0.88744
C         23.19386        57.18461         1.60454
C         21.91950        56.53330         1.22676
C         23.24438        58.65484         1.64875
C         22.04731        59.39546         1.63249
C         23.34721        61.44726         1.81434
C         22.11059        60.79295         1.72148
C         24.44018         3.99531        -1.52836
C         25.70502         6.09068        -1.24438
C         24.48950         5.40772        -1.38052
C         25.75493         7.50659        -1.09261
C         24.48656         8.27485        -1.39700
C         25.70734        10.32774        -0.66919
C         24.49204         9.70556        -0.91950
C         25.78300        11.79286        -0.59811
C         24.46716        12.57907        -0.60093
C         25.69884        14.54171         0.22155
C         24.48287        13.93390        -0.04202
C         25.75179        15.95104         0.74954
C         24.44442        16.70628         0.64529
C         25.72714        18.78343         0.91903
C         24.46151        18.06163         0.88218
C         25.73055        20.18020         1.19696
C         24.47283        20.87860         1.53500
C         25.75478        23.05588         1.09626
C         24.51549        22.41092         1.51002
C         25.72644        24.37131         0.46347
C         24.33340        25.12371         0.32933
C         25.71530        27.29053         0.19979
C         24.38640        26.58868        -0.07319
C         25.71304        28.71263         0.03076
C         24.47114        29.39961        -0.07733
C         25.73529        31.49068        -0.89971
C         24.45743        30.81011        -0.50882
C         25.66156        33.00036        -1.24410
C         24.46096        33.73455        -0.67278
C         25.71168        35.87641        -0.90142
C         24.48575        35.16771        -0.80308
C         25.71167        37.33281        -0.92131
C         24.53766        38.05358        -1.05040
C         25.70612        40.26781        -1.01816
C         24.53773        39.49679        -1.52656
C         25.67138        41.67415        -1.00635
C         24.43525        42.42428        -1.28749
C         25.66796        44.59034        -1.28389
C         24.42695        43.84094        -1.35336
C         25.64606        45.98835        -1.35503
C         24.37426        46.66629        -1.28266
C         25.65206        48.75427        -0.40846
C         24.37080        48.06310        -0.77197
C         25.66981        50.23916        -0.33433
C         24.41929        50.93429        -0.22324
C         25.65842        53.04167         0.13346
C         24.44477        52.34078         0.00739
C         25.66597        54.43647         0.53908
C         24.48333        55.08882         0.85117
C         25.76675        57.19740         1.37022
C         24.50405        56.43063         1.45602
C         25.73510        58.57046         1.59584
C         24.50860        59.30901         1.71514
C         24.53163        60.72245         1.80824
C         26.93060         8.17236        -0.80249
C         28.12611        10.23421        -0.17529
C         26.96256         9.59565        -0.55391
C         28.16730        11.64446         0.35405
C         26.96369        12.45648        -0.05445
C         28.20420        14.51466         0.62732
C         26.93711        13.80847         0.19357
C         28.21884        15.95232         0.09453
C         26.87879        16.71915         0.05796
C         28.17063        18.82225         0.63019
C         26.93552        18.12817         0.61616
C         28.17375        20.22543         0.91367
C         26.94260        20.90299         1.16774
C         28.18589        23.07693         0.98318
C         26.95472        22.35251         1.14938
C         28.16812        24.49205         0.77589
C         26.95388        25.15560         0.45986
C         28.18327        27.29239         0.39263
C         26.93331        26.57961         0.30312
C         28.12985        28.76803         0.46919
C         26.91176        29.47151         0.04999
C         28.16633        31.56281        -0.28444
C         26.98686        30.83568        -0.40583
C         28.25529        32.97782        -0.69151
C         26.98745        33.73208        -1.06634
C         28.19529        35.89304        -0.79567
C         26.97115        35.19844        -0.90496
C         28.17388        37.35344        -0.76942
C         26.96415        38.03403        -0.82631
C         28.19008        40.21743        -0.87427
C         26.90826        39.51302        -0.51599
C         28.16372        41.69815        -0.83942
C         26.86021        42.39358        -0.76209
C         28.10704        44.45398        -0.32455
C         26.99326        43.82921        -1.17772
C         28.04859        46.53718        -2.25179
C         26.85999        46.84034        -1.40261
C         28.17995        48.79254        -0.42224
C         26.89935        48.06975        -0.79462
C         28.13855        50.27516        -0.83174
C         26.86957        50.95564        -0.35956
C         28.14106        53.05336         0.06790
C         26.88666        52.35011        -0.08058
C         28.13802        54.40865         0.43693
C         26.94011        55.12313         0.69869
C         26.95459        56.48566         1.05044
C         29.44205        12.41401         0.08206
C         30.69474        14.52540         0.34132
C         29.47508        13.77810         0.24688
C         30.78730        15.93220         0.40419
C         29.52475        16.70271         0.05483
C         30.53671        18.97906         0.21136
C         29.39942        18.18252         0.25098
C         30.61202        20.27589         0.75807
C         29.40167        20.95313         0.96530
C         30.64491        23.11370         1.07729
C         29.41624        22.39328         1.05309
C         30.61025        24.52568         1.07410
C         29.40074        25.21273         0.83800
C         30.66170        27.36681         0.69176
C         29.39480        26.64310         0.65231
C         30.65720        28.81461         0.23801
C         29.38460        29.53720         0.66684
C         30.64895        31.71035         0.28425
C         29.31306        31.06597         0.57618
C         30.66187        33.09000         0.03352
C         29.44101        33.78149        -0.32504
C         30.70986        35.88533        -0.58200
C         29.41836        35.15886        -0.55405
C         30.69275        37.37309        -0.71682
C         29.41654        38.11152        -0.67609
C         30.70409        40.26143        -0.76538
C         29.45766        39.48707        -0.66511
C         30.65731        41.67835        -0.77662
C         29.40905        42.36282        -0.30268
C         30.67295        44.54293        -0.11952
C         29.38993        43.88230        -0.32498
C         30.79645        45.96977         0.26429
C         29.34559        47.14831        -1.86674
C         30.68372        48.84980        -0.57151
C         29.43962        48.16950        -0.96196
C         30.62183        50.24488        -0.36093
C         29.41115        50.97841        -0.39817
C         29.36780        52.33023        -0.06528
C         32.04606        16.48186         0.76405
C         33.35336        18.65027         1.20459
C         32.43228        17.84900         0.57533
C         33.23529        20.15484         1.24159
C         31.89485        20.91944         1.13766
C         33.10832        23.08210         1.25193
C         31.91221        22.40198         1.11838
C         33.11358        24.54622         1.51061
C         31.79169        25.32039         1.57840
C         33.11641        27.45049         0.96405
C         31.84561        26.73148         0.99998
C         33.12631        28.86805         0.83309
C         31.88932        29.58889         0.62777
C         33.05282        31.75918         1.04581
C         31.85162        30.97355         0.57472
C         33.19160        33.08761         0.29732
C         31.89702        33.84029         0.11452
C         33.19554        35.93318        -0.04935
C         31.94335        35.19573        -0.13017
C         33.17672        37.41951        -0.11680
C         31.91327        38.15593        -0.37670
C         33.25855        40.23966        -1.06958
C         31.93214        39.58061        -0.75547
C         33.21138        41.75938        -0.99404
C         31.88454        42.47446        -0.88053
C         33.14671        44.58390        -0.43139
C         31.86965        43.88822        -0.43472
C         33.15120        46.00842        -0.39814
C         31.96691        46.73130        -0.22952
C         31.89251        48.14160        -0.38545
C         34.41717        20.99461         1.02987
C         35.58011        23.15117         0.89347
C         34.37714        22.38641         1.09395
C         35.61857        24.54578         0.91482
C         34.39286        25.29445         1.29219
C         35.57759        27.43634         0.89015
C         34.35245        26.75530         1.04732
C         35.57887        28.84820         0.79553
C         34.36857        29.57604         0.85054
C         35.54789        31.74814         0.98241
C         34.36984        31.02353         0.92163
C         35.60000        33.19839         0.97441
C         34.28554        33.94161         0.94451
C         35.62617        36.02376         0.47204
C         34.37340        35.31639         0.33080
C         35.61532        37.49807         0.38788
C         34.49335        38.12092        -0.41262
C         35.72227        40.34705        -0.37159
C         34.38137        39.65204        -0.18453
C         35.66787        41.77383        -0.52484
C         34.46291        42.47685        -0.64542
C         34.37054        43.88630        -0.52872
C         36.80982        25.28457         0.73380
C         38.06472        27.39422         0.76544
C         36.84150        26.69939         0.79959
C         38.13992        28.81751         0.81929
C         36.86058        29.55967         0.65218
C         38.07026        31.72784         1.30731
C         36.83713        31.05242         0.80254
C         38.10417        33.26078         1.34139
C         36.78546        33.90336         0.96195
C         38.09626        36.04352         0.60453
C         36.80922        35.34083         0.73686
C         38.13101        37.44628         0.39913
C         36.93126        38.26730         0.36340
C         36.89716        39.65474        -0.15279
C         39.32935        29.52229         0.89879
C         40.58828        31.78452         1.11437
C         39.35092        30.96475         1.23062
C         40.54269        33.08787         0.78557
C         39.23818        33.78963         0.44351
C         39.27832        35.29153         0.51911
O         32.43572        20.47637         2.44358
O         23.13106        54.18380        -0.96295
O         32.40233        37.94076         1.01629
O         22.45228        22.88826         2.68347
O         22.83351        48.87348        -2.48758
O         28.26366        40.97829        -2.12632
O         28.70966        29.09928         1.87051
O         27.98407        45.92298        -3.31591
O         19.36059        26.20572         2.35696
O         13.94404        33.72261        -1.87033
O         19.46078        52.30239        -1.39902
O         15.01176        20.55376         1.39317
O         21.20991        46.60883        -2.98641
O         19.07414        18.64349        -1.25896
O         31.67327        18.49262        -0.42486
O         23.83019        56.51958         2.76681
O         25.26263        12.43220        -1.81897
O         36.94762        30.45276        -0.52909
O         21.29229        41.85443        -2.93934
O         30.88485        36.54929        -1.91490
O         12.43149        22.70860        -1.13998
O         36.04005        38.15229         1.59619
O         28.92121        16.12977        -1.16963
O         24.62406        21.66428         2.76019
O         20.02288        28.93151        -1.17379
O         14.85593        27.22608         1.92136
O         24.81458        48.11671         0.62740
O         33.95941        24.91300         2.66307
O         18.54578        39.58848        -1.79758
O         10.49041        37.60522         2.38077
O         19.57161        12.73806         1.09765
O         38.60867        31.16593         2.54493
O         32.58747        42.31168        -2.20270
O         17.97090        38.03172         1.46124
O         21.95025        38.20708         0.87993
O         24.90281        30.81392        -1.90062
O         24.89191        24.29733        -0.75656
O          9.77389        33.75180        -1.25799
O         27.90696        33.25153        -2.10458
O         30.02346        46.49769         1.09637
O         16.52167        48.37797         1.02346
O         13.92268        36.15015        -1.39736
O         16.98113        34.47796         1.39344
O         14.87850        43.61616         1.73988
O         19.21393        21.55448         2.13980
O         12.04724        26.88694        -1.86882
H         11.91635        27.83165        -2.10276
O         21.14944        35.90336         1.81000
H         21.66464        36.70102         2.07935
O         28.21565        14.52154         2.08513
H         29.03820        14.96525         2.38192
O         22.90452        37.21406        -2.58304
H         23.48795        36.52559        -2.97069
O         31.49067        25.51196         2.99399
H         32.35921        25.52293         3.46273
O         27.75400        45.51241         0.39558
H         28.52249        45.85631         0.93806
O         33.61968        32.72754        -1.03933
H         33.67291        33.54295        -1.58115
O         33.53894        39.93257        -2.46717
H         33.06213        40.61801        -2.99646
O         15.74251        15.81491         1.85843
H         15.64939        16.70792         2.25425
O         26.49056        16.85917        -1.32552
H         27.32264        16.85270        -1.85652
O         12.30687        43.25792         2.52750
H         13.24237        43.57483         2.59796
O          9.04338        31.08829        -1.57098
H          9.12484        32.03058        -1.86274
O         20.33541        49.48525        -2.80270
H         21.20943        49.66540        -3.22167
O         20.62644        52.50147         2.09199
H         21.37697        52.90781         2.57651
O         17.20791        22.74413        -1.39343
H         16.55218        22.18478        -1.86426
O         33.98329        39.92738         1.17025
H         34.61177        39.45166         1.76461
O         15.77088        19.04430        -1.82501
H         15.93443        18.16908        -2.23566
O         28.09393        50.28996        -2.28485
H         28.11146        51.22361        -2.58239
O         25.39479        33.09648        -2.67059
H         26.21146        32.80116        -3.13316
O         27.56758        43.71397        -2.51222
H         27.01824        43.09647        -3.04017
O         19.37413        33.74296         1.89195
H         19.84691        34.50664         2.30322
O         22.05073        25.60510         2.87828
H         22.04308        24.71704         3.30912
O         30.57894        28.81608        -1.22455
H         31.44895        28.53266        -1.57639
O         16.92546        53.09952        -1.55550
H         17.79292        52.88102        -1.97512
O         23.66270        31.68938         1.50268
H         22.80599        31.76617         1.99455
O         20.87935        31.58337         1.91927
H         20.24107        32.26936         2.26474
O         26.86017        39.58825         0.95609
H         26.05471        39.11576         1.25588
O         23.07963        18.40271         2.75993
H         22.48544        19.06200         3.17940
O         11.85095        43.18079        -1.12044
H         11.02869        42.64881        -1.09699
O         32.79225        32.01336         2.44592
H         32.57952        31.16051         2.87784
O         13.25508        31.31872        -2.11600
H         13.68743        32.06144        -2.60425
O         29.34481        42.05394         1.14648
H         30.14785        42.42423         1.57138
O         34.86226        37.80972        -1.77263
H         34.33583        38.38002        -2.38584
O         18.70465        42.26653        -3.02894
H         19.40985        42.65878        -3.59996
O         26.06291        15.92165         2.16610
H         25.28826        15.56256         2.64612
O         21.99417         8.08991         0.85340
H         21.14992         8.46961         1.17905
O         24.67784        39.38788        -2.99265
H         23.92256        38.83055        -3.29792
O         20.61386        12.25338        -2.37080
H         21.40226        11.91267        -2.84501
O         20.40361        44.31120        -3.40675
H         20.90505        45.03552        -3.85577
O         38.88570        33.42243        -0.92286
H         39.55280        33.80723        -1.52833
O         18.61415        33.36339        -1.68033
H         17.99095        32.79478        -2.17955
O         14.74463        37.93139         2.30239
H         14.05077        38.46383         2.74860
O         17.89358        52.45409         1.91956
H         18.74344        52.52392         2.41632
O         33.91866        34.21406         2.32257
H         34.63910        34.73981         2.72876
O         28.22696        48.76834         1.02725
H         28.84369        48.05074         1.30255
O         28.97278        31.58295         1.90208
H         28.59501        30.81599         2.40382
O         15.49180        45.86629        -2.30156
H         16.22496        45.32704        -2.66914
O         28.09718        11.52703         1.82493
H         28.09743        12.44878         2.18121
O         30.40775        46.62379        -2.53070
H         30.03414        46.00137        -3.19994
O         24.45267         8.39589        -2.87161
H         24.56727         7.49296        -3.23871
O         24.26193        26.63233        -1.53295
H         24.69844        25.81718        -1.87711
O         20.05448        58.93068         2.89666
H         20.62887        58.53280         3.58301
O         38.38015        33.68790         2.68917
H         38.63892        32.87888         3.19551
H          5.13013        31.19531         1.74231
H          5.14231        33.66483         1.90526
H          7.47833        26.95230         0.94668
H          6.26895        29.10096         1.20871
H          6.30694        35.80259         1.60428
H          7.42407        37.95377         1.34888
H          9.92167        22.82358         1.11090
H          8.68488        24.80674         0.63524
H          8.73149        40.21088         1.18529
H          9.98325        42.30316         1.46609
H         12.29042        18.28735         0.05117
H         11.03885        20.19397         0.52346
H         11.16732        44.38297         0.45177
H         12.27165        46.43266        -0.37548
H         14.83966        14.05594        -0.38255
H         13.52442        16.22757         0.28483
H         13.51137        48.58889         0.03507
H         14.78626        50.84605        -0.33872
H         17.35224         9.80856        -1.14361
H         16.07378        11.99108        -0.82865
H         15.97581        52.82992         0.24747
H         17.29559        55.06491         0.84810
H         19.81319         5.57314        -1.42817
H         18.58195         7.71573        -1.32085
H         18.55131        57.12966         1.15135
H         20.03357        59.25195         0.86658
H         23.21781         2.22580        -1.66755
H         21.06151         3.43971        -1.45816
H         23.37654        62.54323         1.88898
H         21.17874        61.37524         1.73803
H         25.38221         3.43596        -1.62223
H         26.64157         5.51504        -1.18452
H         26.67919        59.13623         1.58368
H         25.49903        61.24144         1.86738
H         27.86336         7.59905        -0.68440
H         29.05121         9.64150        -0.09716
H         29.10017        54.92861         0.55951
H         27.91439        57.02402         1.06499
H         30.37626        11.85757        -0.09279
H         31.63315        13.95075         0.39548
H         31.54071        50.77273        -0.05963
H         30.30721        52.85246         0.17505
H         32.78041        15.78961         1.20612
H         34.01037        18.21852         1.97547
H         34.09202        46.54146        -0.60311
H         32.83541        48.71313        -0.38358
H         35.36647        20.50237         0.76951
H         36.51310        22.59894         0.70273
H         36.60041        42.34740        -0.40184
H         35.30205        44.46632        -0.43737
H         37.75222        24.74078         0.56803
H         39.00085        26.81540         0.75355
H         39.08491        37.90695         0.09941
H         37.86055        40.17392        -0.28101
H         40.28678        28.97865         0.89588
H         41.55594        31.29370         1.30568
H         41.48035        33.66214         0.70732
H         40.23666        35.81468         0.36845
