         424
 CSIRO Nanostructure Databank - Neutral Graphene Oxide Data Set
C          1.25094         3.36064        -0.77891
C          0.03357         4.04310        -0.92400
C          1.22333         6.16382        -1.08566
C          0.01869         5.42131        -1.07852
C          1.23236         7.61087        -1.20273
C          0.01346         8.34811        -0.94860
C          1.13503        10.51710        -1.23170
C         -0.01595         9.69921        -0.83206
C          1.27152        11.92173        -0.80364
C          0.17801        12.60136        -0.21828
C          1.42250        14.69315        -0.20700
C          0.25280        13.94290         0.09070
C          1.48846        16.10500         0.02430
C          0.42483        16.79524         0.70139
C          1.58899        18.94402         0.41068
C          0.47253        18.13378         0.91395
C          1.39881        20.43960         0.28076
C          0.12280        21.14038         0.54305
C          1.31395        23.29013         0.38291
C          0.10894        22.49492         0.56693
C          1.31620        24.71426         0.59008
C          0.13910        25.42216         0.95602
C          1.32661        27.55218         0.93277
C          0.14115        26.79191         1.10826
C          1.34467        28.98852         1.10820
C          0.11953        29.73797         1.30317
C          1.28603        31.89634         1.34275
C          0.08974        31.10328         1.37528
C          1.30606        33.27668         1.50719
C          0.11390        34.03972         1.84006
C          1.35148        36.21640         1.82901
C          0.13183        35.37132         2.05864
C          1.57774        37.26227         2.90546
C          3.74785         3.28437        -0.73200
C          2.45580         4.05860        -0.80244
C          3.69940         6.20785        -0.94858
C          2.45828         5.46943        -0.96144
C          3.69962         7.60788        -1.20756
C          2.44175         8.29508        -1.36716
C          3.70379        10.51125        -1.49759
C          2.44141         9.75771        -1.55943
C          3.70745        11.89763        -1.39086
C          2.49071        12.60746        -1.00568
C          3.72874        14.75248        -1.09281
C          2.54891        14.00750        -0.75307
C          3.70517        16.14320        -1.05268
C          2.59930        16.85373        -0.47990
C          3.51384        19.04058        -1.35700
C          2.62369        18.27056        -0.39572
C          3.57497        20.56101        -1.11674
C          2.40735        21.24382        -0.47630
C          3.70004        23.36739        -0.26538
C          2.48962        22.66069        -0.05213
C          3.73131        24.76837         0.02299
C          2.52420        25.44534         0.40860
C          3.74892        27.59617         0.45211
C          2.52912        26.86470         0.60185
C          3.77423        29.00190         0.70480
C          2.55398        29.68162         1.03822
C          3.73669        31.86976         0.68550
C          2.60073        31.14576         1.41955
C          3.77024        33.33421         1.03351
C          2.57034        34.01866         1.42309
C          3.86913        36.18246         1.50024
C          2.59700        35.39266         1.63027
C          4.00231        37.32359         2.48393
C          2.79738        37.80186         3.13397
C          6.08880         3.53387         0.08615
C          4.94656         4.13191        -0.38527
C          6.11276         6.31077        -0.48868
C          4.91835         5.55048        -0.63032
C          6.12354         7.70110        -0.83688
C          4.92683         8.32453        -1.23279
C          6.21094        10.48892        -1.49040
C          4.95626         9.71979        -1.80982
C          6.19964        11.93355        -1.92895
C          4.93296        12.65896        -1.54020
C          6.18919        14.80517        -1.56527
C          4.94835        14.04536        -1.45662
C          6.17398        16.20983        -1.51581
C          4.84487        16.91372        -1.66359
C          6.06993        19.14467        -1.68764
C          4.84905        18.36759        -1.25668
C          6.07798        20.58941        -1.23989
C          4.87702        21.27901        -1.04551
C          6.11195        23.39438        -0.75441
C          4.88541        22.67459        -0.69488
C          6.14688        24.80325        -0.47568
C          4.94816        25.48760        -0.09729
C          6.14875        27.65066        -0.05656
C          4.95976        26.91255         0.12897
C          6.13413        29.05404         0.04584
C          4.99041        29.71549         0.51072
C          6.24713        31.89666         0.30796
C          5.09138        31.16196         0.94450
C          6.18050        33.39636         0.26741
C          5.00459        34.01974         0.98202
C          6.41165        35.84535         1.91896
C          5.09508        35.33368         1.42027
C          6.44701        37.33577         2.15074
C          5.22411        37.92109         2.65823
C          8.44479         3.68176         0.79982
C          7.28937         4.28778         0.30224
C          8.50280         6.44139         0.11680
C          7.30614         5.68332        -0.03157
C          8.50451         7.83546        -0.22486
C          7.35789         8.44624        -0.72074
C          8.62912        10.59551        -1.08305
C          7.36458         9.86764        -1.08071
C          8.66079        11.94331        -1.35935
C          7.44336        12.68518        -1.54416
C          8.69509        14.80371        -1.43635
C          7.44188        14.07648        -1.55129
C          8.67621        16.27837        -1.74807
C          7.36801        16.98524        -1.49388
C          8.58395        19.12601        -1.32527
C          7.36334        18.38869        -1.42827
C          8.56290        20.55429        -1.26264
C          7.32415        21.27668        -1.19232
C          8.54842        23.42534        -1.12899
C          7.33002        22.70079        -1.03205
C          8.55971        24.84882        -0.94105
C          7.37450        25.51100        -0.57977
C          8.62006        27.73074        -0.66901
C          7.47169        26.93266        -0.08906
C          8.58323        29.11048        -0.66343
C          7.26289        29.83206        -0.58446
C          8.52483        32.08059        -0.68314
C          7.35060        31.27179        -0.15269
C          8.67382        33.38841         0.06688
C          7.51781        34.03319         0.54004
C          8.82444        35.96001         1.24379
C          7.58536        35.29839         1.15084
C          8.88248        37.33816         1.73455
C          7.65120        37.99307         2.12111
C         10.81277         3.78727         1.43535
C          9.64850         4.41730         0.94393
C         10.93356         6.52416         0.64660
C          9.68518         5.80501         0.58553
C         10.99499         7.89064         0.28897
C          9.72096         8.67984         0.09298
C         11.13008        10.63997        -0.62512
C          9.90420         9.79766        -0.93595
C         11.15285        11.97480        -0.95080
C          9.97010        12.65000        -1.59498
C         11.13842        14.87943        -1.11389
C          9.89986        14.14453        -1.32741
C         11.10249        16.32019        -1.07450
C          9.88776        17.02274        -1.26187
C         11.07253        19.16462        -1.07017
C          9.84672        18.43084        -1.21544
C         11.04568        20.60096        -1.10260
C          9.79530        21.28354        -1.20560
C         11.00572        23.42401        -1.32234
C          9.78105        22.70761        -1.25723
C         10.96027        24.87996        -1.70935
C          9.77763        25.60197        -1.12024
C         11.00434        27.72333        -1.42713
C          9.80999        26.99400        -1.04371
C         10.92855        29.18894        -1.50274
C          9.75702        29.90384        -0.96642
C         11.08201        31.98837        -0.76728
C          9.81003        31.28227        -0.79202
C         11.15526        33.31237        -0.18996
C          9.94490        33.98543         0.26112
C         11.28397        35.91320         1.15088
C          9.99365        35.28053         0.84286
C         11.32534        37.36928         1.41902
C         10.08846        38.01628         1.75256
C         13.17569         3.86968         2.09405
C         12.03672         4.48120         1.51911
C         13.37022         6.52151         1.06923
C         12.11362         5.84434         1.06893
C         13.43116         7.86793         0.59708
C         12.24285         8.57143         0.25050
C         13.53750        10.69512        -0.02298
C         12.30978         9.96192        -0.14444
C         13.58928        12.07718        -0.31989
C         12.45587        12.72028        -1.06524
C         13.54586        14.94038        -0.62090
C         12.34471        14.21120        -0.86474
C         13.53536        16.34375        -0.72311
C         12.32262        17.04839        -0.91097
C         13.53795        19.22779        -0.82233
C         12.30344        18.48341        -0.95066
C         13.51632        20.65767        -0.83275
C         12.25296        21.33996        -0.99498
C         13.44595        23.54825        -0.97842
C         12.21106        22.75618        -1.13485
C         13.44690        24.95205        -1.43561
C         12.26417        25.62796        -1.55915
C         13.45449        27.82714        -1.83010
C         12.21837        27.07626        -1.67334
C         13.48095        29.19858        -1.77901
C         12.23220        29.97287        -1.68133
C         13.56110        31.99417        -1.04752
C         12.27436        31.34290        -1.14320
C         13.60645        33.34371        -0.52936
C         12.41476        33.93963        -0.05339
C         13.75408        36.02327         0.54081
C         12.53309        35.21698         0.68398
C         13.75765        37.39739         0.95254
C         12.53179        38.03501         1.37297
C         15.43901         4.03882         3.04017
C         14.39669         4.55827         2.18698
C         15.83606         6.48511         1.57747
C         14.52194         5.84210         1.57926
C         15.96986         7.88716         1.07380
C         14.72317         8.56608         0.50416
C         15.95184        10.72623         0.52965
C         14.74430        10.03348         0.38384
C         15.97793        12.14886         0.30116
C         14.78185        12.81533        -0.12088
C         15.96803        14.95653        -0.04900
C         14.78382        14.24057        -0.29115
C         15.90822        16.46293         0.07720
C         14.85512        17.06252        -0.84440
C         15.97183        19.27646        -0.50076
C         14.76733        18.55851        -0.66859
C         15.96907        20.69737        -0.59647
C         14.73740        21.36939        -0.74995
C         16.02131        23.55681        -0.99516
C         14.74262        22.84629        -0.75273
C         16.01899        24.92535        -1.38289
C         14.74246        25.59630        -1.73075
C         16.01005        27.81458        -1.81272
C         14.73417        27.08451        -1.99487
C         16.01217        29.20618        -1.78421
C         14.73840        29.97975        -2.07400
C         16.00608        32.14028        -1.62582
C         14.73751        31.35327        -1.44446
C         16.05108        33.43437        -0.86331
C         14.86558        34.04174        -0.43831
C         16.14640        36.12855         0.05105
C         14.91106        35.40649         0.05788
C         16.15533        37.51540         0.43253
C         14.94671        38.12720         0.86260
C         17.46927         4.40470         4.41414
C         16.55784         4.77347         3.35945
C         17.88124         6.92651         3.07933
C         16.88217         5.97513         2.56643
C         17.99962         8.23906         2.52864
C         17.05030         8.73875         1.57903
C         18.26453        10.85556         1.43460
C         17.11807        10.08458         1.13535
C         18.48665        12.12732         0.65160
C         17.18389        12.88263         0.42475
C         18.45872        15.02761         0.16495
C         17.17633        14.27520         0.23151
C         18.44291        16.50320         0.10987
C         17.23248        17.17805        -0.07977
C         18.43058        19.32364        -0.17504
C         17.21765        18.58334        -0.25791
C         18.40644        20.75868        -0.27193
C         17.21209        21.43549        -0.50364
C         18.46361        23.57806        -0.86163
C         17.21914        22.87272        -0.75379
C         18.46984        24.94171        -1.28620
C         17.22864        25.62585        -1.53599
C         18.45611        27.76772        -1.77846
C         17.23435        27.07070        -1.74271
C         18.47712        29.18304        -1.68465
C         17.24502        29.91622        -1.65122
C         18.49149        32.00566        -1.31984
C         17.26966        31.32689        -1.49547
C         18.51297        33.40000        -0.96342
C         17.31739        34.08863        -0.71077
C         18.58147        36.19107        -0.26122
C         17.35185        35.47327        -0.28303
C         18.56998        37.59996         0.01200
C         17.36403        38.23651         0.36402
C         18.49782         5.22501         4.77179
C         19.70808         7.39528         4.61983
C         18.69783         6.51947         4.15289
C         19.88897         8.63660         4.03635
C         19.04513         9.09376         2.99517
C         20.29683        11.23687         2.73881
C         19.22415        10.39333         2.37550
C         20.43544        12.52858         2.19082
C         19.58091        13.00238         1.21931
C         20.87948        15.21543         0.94888
C         19.73736        14.34323         0.62546
C         20.86551        16.53409         0.63709
C         19.67034        17.22565         0.18938
C         20.89904        19.39034        -0.08063
C         19.66316        18.63008         0.01155
C         20.90713        20.73681        -0.14189
C         19.65367        21.54233         0.08317
C         20.87492        23.63904        -0.62919
C         19.68691        22.92969        -0.52647
C         20.89118        24.95927        -1.11549
C         19.71468        25.61791        -1.44203
C         20.96964        27.79304        -1.83101
C         19.71968        26.99297        -2.08092
C         20.95675        29.13272        -1.68918
C         19.72215        29.89772        -1.63930
C         20.95170        32.07651        -1.58855
C         19.73040        31.29071        -1.48028
C         20.99127        33.38052        -1.24706
C         19.82880        34.01045        -0.52590
C         20.99460        36.26531        -0.51715
C         19.82260        35.52598        -0.50067
C         20.97803        37.66769        -0.31352
C         19.79998        38.32326        -0.03932
O         15.73414         7.94375        -0.36836
O         12.08767        35.11168         2.09415
O          1.54958        10.25927        -2.60829
O          2.51711        21.19219        -1.94149
O         16.96346         5.66578         1.13238
O         14.00066        23.42660         0.39912
O         14.75699        26.14195        -3.11042
O          2.07124        19.89165         1.47697
O         11.32496        29.74901        -2.80597
O         19.37968        14.41084        -0.80944
O          3.62837         2.16918         0.16051
H          3.43717         2.51480         1.05612
O         15.45883        16.73215         1.43937
H         16.11287        16.34965         2.06034
O          2.91630        18.83893        -2.69681
H          2.56161        19.71275        -2.99051
O          4.61065        16.87853        -3.12874
H          3.80126        17.43263        -3.28874
O         19.69163        26.73473        -3.52946
H         19.54869        27.59435        -3.97909
O         12.84539        12.58957        -2.51478
H         13.21607        11.68731        -2.63193
O          1.09673        36.97412         0.59700
H          1.96503        37.36220         0.32512
O         14.72621        30.19058        -3.52603
H         15.33610        30.94906        -3.70963
O          7.83509        26.79683         1.34437
H          7.13345        26.26283         1.77486
O         10.16382         9.16011        -2.21488
H         10.21147         9.86679        -2.89391
O         19.57838        21.76844         1.53801
H         19.50261        20.88905         1.96527
O          5.87874        33.70171        -1.16730
H          5.89232        34.67915        -1.26475
O          8.17956        32.42010        -2.07399
H          7.33360        32.93668        -2.02835
O         15.99908        32.56525        -3.07357
H         15.25566        33.19890        -3.17751
O          5.44530        31.16907         2.34917
H          4.62529        31.02801         2.88222
O          6.85953        29.93943        -2.00145
H          7.42216        30.64799        -2.40403
O          5.97113        19.22010        -3.15307
H          5.74552        18.30601        -3.46951
O         10.19240        12.54053        -3.05292
H         11.16092        12.71138        -3.19541
O          6.20975        11.92169        -3.41764
H          7.13932        11.77889        -3.70041
O          8.79860        16.31252        -3.22803
H          9.53313        15.71028        -3.47564
O          9.45198         9.35246         1.36329
H          9.31772         8.66200         2.04579
O         18.93930        11.70486        -0.68003
H         19.14223        12.53706        -1.17371
O          4.94819         9.52518        -3.26377
H          5.18198        10.40084        -3.66480
O         15.32538        16.82900        -2.20496
H         14.65042        17.17485        -2.82547
O          3.46165        31.75423        -0.73250
H          4.18576        32.21240        -1.21540
O         19.97977        33.62429         0.89209
H         19.96866        32.64386         0.92649
O          3.78669        36.86521         0.15397
H          3.62501        36.15605        -0.50666
O          6.54650        35.26165         3.27272
H          7.44399        35.48650         3.59944
O          2.89172        31.16336         2.86477
H          2.16376        30.68355         3.31388
O         10.71674        24.86211        -3.16491
H         10.76455        25.78920        -3.48381
H          1.26459         2.26875        -0.65510
H         -0.91090         3.48143        -0.92337
H         -0.94574         5.92848        -1.21305
H         -0.89281         7.78487        -0.68820
H         -0.93044        10.18739        -0.46797
H         -0.76203        12.06683        -0.02858
H         -0.62959        14.43289         0.52137
H         -0.42172        16.22558         1.10654
H         -0.29458        18.63150         1.52233
H         -0.79346        20.56690         0.74165
H         -0.84051        23.00734         0.77264
H         -0.80221        24.87984         1.11370
H         -0.79775        27.28913         1.38503
H         -0.83614        29.19775         1.32526
H         -0.88698        31.60383         1.43735
H         -0.83152        33.49481         1.97775
H         -0.79632        35.89256         2.33843
H          0.69618        37.66336         3.42892
H          3.93496         2.84350        -1.75337
H          2.90727        38.61729         3.86687
H          6.09235         2.45238         0.28661
H          5.29544        38.84928         3.24859
H          8.43360         2.61353         1.06122
H          7.70038        39.05858         2.39502
H         10.76539         2.73421         1.74929
H         10.11140        39.07653         2.04707
H         13.08512         2.86218         2.52577
H         12.56569        39.10833         1.61473
H         15.24021         3.09657         3.57328
H         14.95712        39.18855         1.15208
H         17.30884         3.45070         4.93746
H         17.37070        39.30757         0.61556
H         19.18003         4.93207         5.58312
H         20.35964         7.07395         5.44488
H         20.69517         9.27978         4.41324
H         21.03694        10.90958         3.47955
H         21.26056        13.15994         2.55208
H         21.77930        14.77017         1.39661
H         21.76494        17.13096         0.84294
H         21.84770        18.84288        -0.17551
H         21.86949        21.25800        -0.24162
H         21.83052        23.18270        -0.33871
H         21.86325        25.45826        -1.22248
H         21.93856        27.27687        -1.88692
H         21.91066        29.66684        -1.57308
H         21.84270        31.60650        -2.02947
H         21.92412        33.94600        -1.38201
H         21.96554        35.77420        -0.66899
H         21.92566        38.22357        -0.34477
H         19.79305        39.40527         0.15617
