         630
 CSIRO Nanostructure Databank - Neutral Graphene Oxide Data Set
C         22.87246        27.34857        -0.28919
C         22.86611        28.73094        -0.32336
C         22.84692        31.69907        -0.08759
C         22.89059        33.05776         0.03537
C         22.85373        36.02829        -0.22789
C         22.88412        37.32441        -0.55965
C         22.93406        40.19074         0.30627
C         22.93386        41.58146         0.62476
C         22.90583        44.52311         0.73634
C         22.90967        45.89821         0.74948
C         25.29906        24.52953        -0.20881
C         24.11418        25.21716        -0.24578
C         25.32917        27.36122        -0.30845
C         24.09756        26.64352        -0.28332
C         25.31581        28.79038        -0.36314
C         24.07162        29.46426        -0.37052
C         25.36620        31.70835        -0.45144
C         24.02486        30.93961        -0.49884
C         25.33208        33.13662        -0.08905
C         24.11101        33.80878        -0.02002
C         25.33647        36.00614         0.01756
C         24.04707        35.29260         0.33438
C         25.37267        37.36037        -0.21663
C         24.14408        38.14980        -0.61525
C         25.37281        40.09538         0.48706
C         24.09427        39.48392         0.11188
C         25.37976        41.60878         0.80500
C         24.09791        42.32423         0.72541
C         25.35413        44.47421         0.73909
C         24.12143        43.77981         0.73290
C         25.37172        45.90682         0.73946
C         24.13444        46.61937         0.75040
C         25.33248        48.73244         0.77912
C         24.14286        48.03824         0.76833
C         27.82834        23.07733        -0.01832
C         27.79635        24.49714        -0.10992
C         26.55374        25.21441        -0.20149
C         27.80563        27.34841        -0.26758
C         26.56293        26.63504        -0.26304
C         27.80011        28.77900        -0.28531
C         26.57506        29.51532        -0.32734
C         27.81987        31.62790        -0.00729
C         26.60135        30.93081        -0.25088
C         27.80124        33.08222         0.18659
C         26.59125        33.78957         0.18341
C         27.89863        35.98280         0.14180
C         26.58057        35.25653         0.32702
C         27.86529        37.34106        -0.54156
C         26.61493        38.09692        -0.22151
C         27.86491        40.20163         0.10212
C         26.64664        39.46417         0.05711
C         27.87162        41.61797         0.41692
C         26.64368        42.34103         0.65872
C         27.83133        44.48518         0.81951
C         26.62025        43.75824         0.72266
C         27.86609        45.91831         0.79947
C         26.59817        46.63962         0.73159
C         27.83228        48.80316         0.75342
C         26.58221        48.05356         0.75628
C         27.88442        50.16304         0.93483
C         30.26749        23.06356         0.11543
C         29.01451        22.38852         0.07098
C         30.26762        24.49755         0.05447
C         29.03392        25.20851        -0.09757
C         30.28361        27.34752        -0.27567
C         29.03737        26.63714        -0.20860
C         30.28868        28.77015        -0.27456
C         29.04261        29.48322        -0.22345
C         30.31081        31.55871         0.23196
C         29.02649        30.89204        -0.04578
C         30.31549        33.04340         0.38567
C         29.05936        33.81013         0.20334
C         30.37312        35.83907        -0.49471
C         29.10962        35.17547         0.00445
C         30.37255        37.37715        -0.49213
C         29.12205        38.12615        -0.31965
C         30.37724        40.22777         0.01863
C         29.12390        39.50392        -0.09475
C         30.35148        41.72664        -0.07308
C         29.07724        42.32222         0.44733
C         30.39365        44.44466         1.00724
C         29.08473        43.71842         0.88893
C         30.35834        45.94099         1.06737
C         29.07220        46.62221         0.81909
C         30.38653        48.81325         0.71340
C         29.10014        48.06688         0.39285
C         30.33825        50.24466         0.85874
C         29.12008        50.87964         0.96572
C         32.77488        20.25596        -0.12554
C         31.57011        20.93553        -0.11707
C         32.74429        23.01113         0.46697
C         31.49011        22.32129         0.15320
C         32.75824        24.54765         0.37299
C         31.49695        25.22937         0.02479
C         32.79779        27.28700        -0.47369
C         31.50770        26.60527        -0.22975
C         32.80986        28.79187        -0.59226
C         31.53856        29.50898        -0.31638
C         32.80552        31.66643        -0.46367
C         31.57184        30.86452        -0.09353
C         32.87516        33.07056         0.08636
C         31.62394        33.77137         0.37687
C         32.90277        35.93100        -0.04331
C         31.61441        35.26065         0.17670
C         32.86413        37.39868         0.28298
C         31.64678        38.12379        -0.23219
C         32.84767        40.28341         0.21237
C         31.60574        39.57780         0.05632
C         32.87603        41.68640         0.27244
C         31.63751        42.41654         0.34741
C         32.89499        44.52513         0.56077
C         31.65959        43.77583         0.60896
C         32.89753        45.93416         0.62689
C         31.65031        46.68321         0.91319
C         32.86374        48.85080         0.57453
C         31.60386        48.14989         0.69494
C         32.86741        50.27767         0.65801
C         31.62631        50.98577         1.16222
C         32.76443        53.11678         0.53992
C         31.61662        52.43695         0.75149
C         35.32639        18.77144        -0.23345
C         35.29435        20.17007        -0.00648
C         34.03044        20.91392         0.09575
C         35.25372        23.05577         0.55578
C         34.01501        22.28226         0.36170
C         35.25069        24.51476         0.33586
C         34.05894        25.23396         0.14701
C         35.33993        27.29884        -0.59715
C         34.06184        26.59501        -0.20032
C         35.31854        28.79711        -0.35141
C         34.10032        29.51321        -0.38761
C         35.32200        31.63559        -0.21658
C         34.09832        30.91264        -0.27854
C         35.32231        33.06993        -0.15752
C         34.07070        33.77532        -0.00820
C         35.36057        35.95478        -0.04179
C         34.08900        35.23264         0.01974
C         35.38330        37.37142        -0.01909
C         34.10512        38.15376        -0.19099
C         35.38669        40.27922         0.07508
C         34.13872        39.53013         0.46255
C         35.36893        41.69417         0.11742
C         34.12930        42.40353         0.28031
C         35.35624        44.55449         0.21366
C         34.12960        43.82173         0.34071
C         35.34216        45.97508         0.23855
C         34.09576        46.67264         0.41519
C         35.29353        48.81295         0.03779
C         34.05057        48.10179         0.35636
C         35.28829        50.31958         0.14199
C         34.04576        51.02267         0.51192
C         35.26888        53.18624         0.41545
C         34.05569        52.45388         0.53102
C         35.32844        54.58493         0.25782
C         37.77236        18.76674        -0.32628
C         36.52370        18.09542        -0.37715
C         37.76751        20.17085        -0.10695
C         36.52825        20.84664         0.07463
C         37.76454        23.03261        -0.05461
C         36.54901        22.29112         0.38614
C         37.75842        24.52177        -0.01279
C         36.54409        25.26030         0.53554
C         37.77659        27.35476         0.01352
C         36.56470        26.66482        -0.00139
C         37.79882        28.78536        -0.16652
C         36.54734        29.49686        -0.25483
C         37.79364        31.64720        -0.30252
C         36.55652        30.92435        -0.23234
C         37.75947        33.06264        -0.35557
C         36.54432        33.78259        -0.20523
C         37.80817        35.95539        -0.22811
C         36.57158        35.23303        -0.15211
C         37.82033        37.38454        -0.16471
C         36.58941        38.09556        -0.06744
C         37.82488        40.25390        -0.15629
C         36.58396        39.55127        -0.06226
C         37.81887        41.68553        -0.12453
C         36.59973        42.41124        -0.00028
C         37.82129        44.55139        -0.07127
C         36.59805        43.84490         0.04206
C         37.83096        45.99539        -0.00872
C         36.58462        46.70294         0.13095
C         37.80642        48.85383         0.05818
C         36.58867        48.11130         0.11165
C         37.83378        50.27455         0.17184
C         36.57688        50.97540         0.47308
C         37.83227        53.19013         0.33720
C         36.56075        52.48528         0.57620
C         37.79053        54.59615         0.23704
C         36.54714        55.26076         0.22825
C         40.24712        16.01654        -1.03708
C         39.05982        16.68487        -0.83477
C         40.26715        18.75249        -0.30295
C         39.02960        18.06228        -0.48431
C         40.26736        20.18690        -0.08600
C         39.03020        20.89112        -0.05228
C         40.25106        23.03849         0.02086
C         39.04559        22.30402        -0.01601
C         40.23207        24.47819         0.14568
C         39.05407        25.22022         0.14097
C         40.23676        27.39165         0.27472
C         39.03035        26.65292         0.20659
C         40.23917        28.79218         0.15140
C         39.02270        29.49497        -0.08744
C         40.28100        31.61827        -0.29177
C         39.04276        30.93345        -0.24231
C         40.30662        33.04336        -0.65546
C         38.98347        33.81299        -0.65308
C         40.26909        35.95497        -0.44936
C         39.03354        35.26412        -0.42774
C         40.28299        37.38357        -0.35796
C         39.05517        38.09808        -0.25757
C         40.29536        40.23579        -0.30347
C         39.05249        39.53110        -0.23991
C         40.28380        41.67454        -0.31741
C         39.05564        42.39601        -0.21100
C         40.29056        44.51529        -0.28875
C         39.05073        43.82246        -0.20364
C         40.31114        46.01401        -0.47597
C         39.03341        46.72055        -0.10318
C         40.26990        48.88861        -0.02461
C         39.05179        48.14337        -0.02615
C         40.28732        50.29621         0.01947
C         39.04121        51.01270         0.14569
C         40.29468        53.15938         0.06612
C         39.04640        52.44860         0.22601
C         40.30527        54.56473         0.00041
C         39.07813        55.38020         0.34839
C         40.21662        57.34009        -0.65668
C         39.06363        56.72094        -0.33930
C         42.72389        16.01069        -1.08826
C         41.49346        16.68143        -0.85590
C         42.77760        18.69296        -0.17072
C         41.48647        18.04299        -0.44426
C         42.77586        20.21383         0.03164
C         41.48384        20.92351        -0.03020
C         42.74790        23.07587        -0.01761
C         41.49202        22.33282         0.01881
C         42.75901        24.44967         0.05535
C         41.51215        25.16560         0.37825
C         42.77713        27.39477         0.19872
C         41.51180        26.66814         0.47857
C         42.74987        28.77552         0.19155
C         41.49821        29.55696         0.50264
C         42.73207        31.67120        -0.15291
C         41.51777        30.96851        -0.04561
C         42.74232        33.11022        -0.29114
C         41.53422        33.81991        -0.44744
C         42.75732        35.95734        -0.40394
C         41.52035        35.23593        -0.47562
C         42.75261        37.37287        -0.34646
C         41.53231        38.08914        -0.33904
C         42.77234        40.24931        -0.38071
C         41.52445        39.52941        -0.31743
C         42.75614        41.66963        -0.50937
C         41.50442        42.38346        -0.41882
C         42.79425        44.50843        -0.31263
C         41.48542        43.80536        -0.37705
C         42.84353        45.97098        -0.06892
C         41.53861        46.68161         0.12073
C         42.81900        48.88870        -0.06689
C         41.54870        48.17106         0.14232
C         42.79153        50.29508        -0.11967
C         41.53878        51.01014        -0.02642
C         42.76994        53.14317        -0.18702
C         41.53618        52.42859        -0.05608
C         42.76102        54.56397        -0.28762
C         41.51720        55.26625        -0.24661
C         42.69771        57.35949        -0.69431
C         41.49555        56.67244        -0.50013
C         43.94982        16.68161        -0.97922
C         45.29759        18.75647        -0.54655
C         44.01649        18.00484        -0.55879
C         45.28865        20.25998        -0.37931
C         44.01400        20.98068        -0.18957
C         45.26827        23.09643        -0.08378
C         44.01098        22.35654        -0.15471
C         45.27288        24.49341        -0.06903
C         43.98545        25.21792        -0.38167
C         45.24258        27.35988         0.06876
C         43.99440        26.67037        -0.00052
C         45.24282        28.75549         0.17115
C         43.99585        29.48903        -0.22500
C         45.18160        31.65328         0.03602
C         43.98968        30.97329         0.00642
C         45.21153        33.05395        -0.41936
C         43.96763        33.83412        -0.34051
C         45.27847        35.93497        -0.53743
C         44.00005        35.23170        -0.40680
C         45.29601        37.38662        -0.51457
C         44.04602        38.08778        -0.02737
C         45.22571        40.26203        -0.42902
C         44.01285        39.55770        -0.35474
C         45.19102        41.67944        -0.57347
C         43.98180        42.36813        -0.65899
C         45.25222        44.59295        -0.81849
C         43.95033        43.84246        -1.00851
C         45.24371        46.05151        -0.75360
C         44.05247        46.74894        -0.42021
C         45.26193        48.88917        -0.45361
C         44.03481        48.16392        -0.30450
C         45.26441        50.31066        -0.38645
C         44.02606        51.02025        -0.25802
C         45.25067        53.16131        -0.36403
C         44.01432        52.43685        -0.27384
C         45.24273        54.58404        -0.40488
C         43.97971        55.29755        -0.43492
C         43.92047        56.69021        -0.62466
C         47.69143        18.76822         0.05717
C         46.55732        18.07419        -0.20088
C         47.74695        20.21967         0.13065
C         46.52616        20.96119         0.01287
C         47.70890        23.10265         0.33118
C         46.49777        22.36936         0.11439
C         47.72594        24.49364         0.26066
C         46.49613        25.22225         0.08092
C         47.73558        27.37337         0.22565
C         46.49926        26.63875         0.11745
C         47.75151        28.75447         0.40891
C         46.47596        29.47298         0.49088
C         47.73535        31.76436         0.36639
C         46.44075        30.99819         0.44750
C         47.77144        33.11405        -0.21246
C         46.50868        33.76965        -0.61084
C         47.74233        35.91571        -1.06769
C         46.46646        35.23991        -0.65940
C         47.74919        37.40055        -0.82309
C         46.48361        38.09171        -0.66628
C         47.68174        40.23970        -0.69759
C         46.49896        39.55273        -0.54873
C         47.74993        41.69910        -0.51709
C         46.44338        42.44796        -0.48374
C         47.71437        44.55065        -1.08269
C         46.43089        43.89174        -0.79591
C         47.71261        46.06640        -1.16021
C         46.45977        46.77349        -0.84599
C         47.72747        48.89517        -0.72398
C         46.48420        48.17971        -0.65715
C         47.73396        50.31180        -0.60659
C         46.50208        51.02177        -0.46471
C         47.72147        53.17863        -0.42596
C         46.49402        52.45464        -0.41249
C         47.67959        54.58930        -0.41254
C         46.47522        55.27201        -0.41967
C         50.21860        20.23587         0.42180
C         48.95613        20.89651         0.37263
C         50.22959        23.08460         0.47101
C         48.93942        22.35607         0.76622
C         50.22611        24.51008         0.32992
C         48.98697        25.22615         0.29541
C         50.22348        27.33387         0.06645
C         48.99154        26.62900         0.20254
C         50.16801        28.82744        -0.19019
C         49.07327        29.47082         0.68289
C         50.25678        31.69878         0.00572
C         49.04344        30.99832         0.48754
C         50.23336        33.06389        -0.21940
C         48.98648        33.80022        -0.33185
C         50.22071        35.93158        -0.65734
C         49.00625        35.20458        -0.64364
C         50.21700        37.36570        -0.79294
C         48.95773        38.07606        -0.87734
C         50.19608        40.29432        -0.85391
C         48.92851        39.55604        -1.18563
C         50.23178        41.69328        -0.83454
C         49.00143        42.44082        -0.80225
C         50.22162        44.57927        -0.91866
C         48.99901        43.83203        -0.90436
C         50.22883        46.02109        -0.98133
C         48.99591        46.77841        -1.02154
C         50.20066        48.93406        -1.06423
C         48.95790        48.16900        -0.90683
C         50.22144        50.36607        -0.73715
C         48.98279        51.04725        -0.60147
C         50.22360        53.13657        -0.42055
C         48.98062        52.46186        -0.46995
C         51.39482        20.93087         0.55666
C         52.68984        23.08736         0.51804
C         51.43263        22.37534         0.52683
C         52.70512        24.49874         0.32273
C         51.45591        25.21482         0.20468
C         52.69536        27.36907        -0.18359
C         51.42880        26.63509         0.03844
C         52.71582        28.83529        -0.02575
C         51.49414        29.54260        -0.02875
C         52.74117        31.65480        -0.06839
C         51.49975        30.94680        -0.05557
C         52.75035        33.07438        -0.18978
C         51.49530        33.75458        -0.68612
C         52.66180        35.97348        -0.40106
C         51.47311        35.25565        -0.50579
C         52.68338        37.39873        -0.55044
C         51.45071        38.06497        -0.78495
C         52.73656        40.28462        -0.93073
C         51.43424        39.52691        -1.02649
C         52.70184        41.73602        -0.66275
C         51.47375        42.42950        -0.76758
C         52.67537        44.57670        -0.60412
C         51.45596        43.86901        -0.76214
C         52.68767        46.01075        -0.63110
C         51.46156        46.70445        -0.86066
C         52.73965        48.89263        -0.66964
C         51.52087        48.15895        -1.03932
C         52.72223        50.30384        -0.60575
C         51.45680        51.04552        -0.64644
C         51.42299        52.45104        -0.48102
C         55.10961        23.10826         0.82002
C         53.91795        22.41812         0.74822
C         55.15811        24.51019         0.60650
C         53.95341        25.18476         0.32454
C         55.21497        27.38944         0.30097
C         54.00077        26.61915        -0.01508
C         55.19636        28.79504         0.26255
C         53.95260        29.51679         0.09261
C         55.18864        31.67227         0.22095
C         53.96407        30.94509         0.09379
C         55.17734        33.09237         0.18603
C         53.93999        33.77850        -0.03588
C         55.19234        36.00456         0.07873
C         53.89925        35.25849         0.00230
C         55.22218        37.44629        -0.27673
C         53.94590        38.14019        -0.49399
C         55.20207        40.30460        -0.61035
C         53.95755        39.51862        -0.64010
C         55.14022        41.72665        -0.22635
C         53.89327        42.41940        -0.32941
C         55.06944        44.54986        -0.02713
C         53.89114        43.86428        -0.28880
C         55.20329        45.96728        -0.49660
C         53.90394        46.72608        -0.47218
C         55.16564        48.85180        -0.20856
C         53.93784        48.15298        -0.44428
C         55.13771        50.25828        -0.22036
C         53.95469        50.96575        -0.39492
C         57.64179        24.58280         0.91187
C         56.41539        25.24867         0.68987
C         57.63276        27.39985         0.76344
C         56.41530        26.67193         0.59404
C         57.63830        28.82670         0.68761
C         56.41565        29.53346         0.45840
C         57.64343        31.67463         0.56138
C         56.41807        30.95391         0.41244
C         57.64423        33.10638         0.47600
C         56.41975        33.81998         0.28917
C         57.67364        35.92864         0.17823
C         56.45751        35.23449         0.13972
C         57.74899        37.37771        -0.25024
C         56.42518        38.10041        -0.26437
C         57.62677        40.28849         0.21171
C         56.51023        39.56624        -0.43282
C         57.50828        41.66055         0.47429
C         56.30037        42.37511         0.21444
C         57.52709        44.54931         0.57633
C         56.20088        43.82713         0.65091
C         57.55462        45.96896         0.40669
C         56.38192        46.70817         0.07189
C         57.61455        48.78720         0.37375
C         56.39299        48.10917         0.07531
C         58.82922        25.28164         1.05746
C         60.06009        27.42862         1.15934
C         58.84785        26.69392         0.99732
C         60.06334        28.79869         1.09086
C         58.86290        29.53832         0.85450
C         60.06896        31.72060         0.91616
C         58.86399        30.97021         0.77894
C         60.07393        33.08921         0.82631
C         58.87332        33.82282         0.59451
C         60.07280        36.02665         0.66935
C         58.88416        35.24705         0.45387
C         60.04475        37.40070         0.72037
C         58.86880        38.15236         0.42029
C         59.95025        40.30939         1.04759
C         58.80733        39.54516         0.57019
C         59.88215        41.63182         1.29759
C         58.58286        42.38422         1.26737
C         59.92223        44.55662         0.99678
C         58.69286        43.85403         0.89242
C         59.96314        45.93110         0.88280
C         58.77960        46.66842         0.62415
C         58.77916        48.09094         0.59396
O         36.57602        51.62004         1.78445
O         37.56052        23.83089        -1.28472
O         47.65139        45.24793        -2.38627
O         32.79666        27.98548        -1.82541
O         53.44693        26.90916        -1.36014
O         31.58253        34.70749         1.52217
O         46.30908        30.31285         1.72776
O         47.16770        42.15424         0.77067
O         39.62044        33.37759        -1.90600
O         31.24038        37.85196        -1.61421
O         24.67942        31.41983        -1.71443
O         32.67896        23.87742         1.66761
O         56.10637        40.05574        -1.75135
O         50.92077        48.61789        -2.30324
O         25.42787        40.58570         1.85985
O         41.44499        47.33115         1.40183
O         45.84777        33.12049        -1.77339
O         42.87702        19.30259         1.18382
O         29.80825        43.85384         2.21532
O         54.38718        35.77968         1.30498
O         45.39752        19.64100        -1.73582
O         30.27942        32.18309         1.58388
O         41.56750        25.86109         1.70184
O         31.09210        46.40280         2.26996
O         36.08706        22.63361         1.73677
O         35.23033        49.69012        -1.17115
O         52.16614        39.92868        -2.25455
O         48.47564        31.68543         1.64450
O         43.11001        44.99591         1.02535
O         27.30307        35.85948         1.46598
O         23.90023        35.34859         1.79227
H         24.78924        35.22843         2.19027
O         32.66367        31.86298        -1.92541
H         32.75502        30.98355        -2.35291
O         24.33922        38.49991        -2.02677
H         24.45747        37.66366        -2.52514
O         51.52560        33.57893        -2.15250
H         51.43878        32.61929        -2.33725
O         48.85751        39.63429        -2.66538
H         49.77024        39.52054        -3.01176
O         47.74383        35.79602        -2.55184
H         48.51837        36.30059        -2.88279
O         36.74200        25.35313         1.98313
H         36.55884        24.45471         2.35206
O         30.30134        41.99875        -1.54229
H         31.00680        41.45720        -1.95939
O         43.88038        25.23044        -1.86839
H         44.02537        24.31094        -2.18079
O         48.85303        22.33300         2.25201
H         49.64454        21.85101         2.57527
O         41.45681        29.72868         1.96642
H         41.44352        28.83312         2.36870
O         31.72410        50.98093         2.63093
H         32.57303        51.41046         2.86982
O         29.09473        48.00623        -1.09653
H         28.98033        48.92571        -1.42033
O         44.15231        38.01927         1.44805
H         43.41480        38.54811         1.82083
O         33.96960        38.39442        -1.61356
H         33.80993        37.53696        -2.06065
O         40.48895        46.22643        -1.92138
H         39.75460        45.77317        -2.38730
O         39.20797        55.68194         1.78912
H         39.21668        54.82511         2.26702
O         44.01575        29.41442        -1.72166
H         43.94232        28.46436        -1.96357
O         49.73586        29.02840        -1.56588
H         50.36816        28.56487        -2.15478
O         32.71618        37.43117         1.71835
H         33.51069        37.03307         2.13086
O         55.53601        45.83859        -1.94894
H         54.76747        45.41287        -2.38763
O         55.83331        43.80212         2.07619
H         56.58154        43.35324         2.55033
O         35.45195        27.14291        -2.06208
H         34.59524        27.47125        -2.43078
O         58.14072        37.31966        -1.67144
H         59.04200        36.93411        -1.70870
O         27.82371        37.00695        -1.97636
H         27.93705        37.84077        -2.48004
O         30.49232        35.40801        -1.88196
H         30.85102        36.17059        -2.39333
O         43.65371        43.92839        -2.43611
H         44.42986        43.59562        -2.93408
O         58.11141        42.39108         2.67527
H         58.06099        41.45672         2.97070
O         49.42807        29.23310         2.05880
H         48.87919        29.84446         2.60103
O         34.27274        39.35909         1.90647
H         34.19800        40.24456         2.32034
H         21.92651        26.78916        -0.27417
H         21.90425        29.26042        -0.34663
H         21.92082        31.16674         0.16967
H         21.96976        33.58732         0.31673
H         21.89343        35.49248        -0.27484
H         21.96587        37.80386        -0.93420
H         21.96485        39.72170         0.08416
H         21.95730        42.08408         0.64010
H         21.94360        43.99473         0.73976
H         21.96175        46.45510         0.76059
H         25.27115        23.43287        -0.17593
H         23.15765        24.67511        -0.23979
H         25.30579        49.83016         0.78772
H         23.18577        48.57927         0.77380
H         26.89271        22.50390        -0.02039
H         26.96727        50.73882         1.12107
H         28.98605        21.29311         0.14217
H         29.06988        51.95899         1.16079
H         32.75866        19.18055        -0.34328
H         30.65406        20.37131        -0.33973
H         32.72010        54.19684         0.34080
H         30.66524        52.98727         0.75041
H         34.39300        18.19564        -0.28234
H         34.40372        55.17292         0.18535
H         36.48963        17.00844        -0.52731
H         36.52284        56.35715         0.17305
H         40.24329        14.95997        -1.34008
H         38.11925        16.13781        -0.98143
H         40.21095        58.35684        -1.07787
H         38.10814        57.24456        -0.48129
H         42.70513        14.96053        -1.41090
H         42.67826        58.43991        -0.89688
H         44.87447        16.14949        -1.24527
H         44.84222        57.27053        -0.76227
H         48.60173        18.20064         0.29521
H         46.56111        16.97639        -0.13365
H         48.60986        55.17178        -0.41805
H         46.49606        56.36953        -0.42563
H         50.26908        19.14372         0.31123
H         50.25423        54.22856        -0.31272
H         52.33501        20.36532         0.57804
H         52.35617        53.02498        -0.41323
H         56.02751        22.54817         1.03960
H         53.93248        21.33301         0.91267
H         56.06212        50.83063        -0.06851
H         53.99716        52.06218        -0.36452
H         57.67111        23.48697         0.97032
H         57.64460        49.88465         0.38710
H         59.76944        24.73812         1.22833
H         60.99580        26.88019         1.33980
H         61.01558        29.32866         1.22248
H         61.02211        31.20428         1.08767
H         61.03028        33.61896         0.92488
H         61.01804        35.51972         0.90296
H         60.96428        37.92194         1.01990
H         60.91493        39.79959         1.17560
H         60.77825        42.14572         1.67241
H         60.85205        44.01611         1.21756
H         60.91253        46.46867         1.01904
H         59.72082        48.62994         0.77249
