         300
 CSIRO Nanostructure Databank - Neutral Graphene Oxide Data Set
C         30.25120        31.81339         0.00009
C         30.33977        32.96521         0.48381
C         30.28935        36.12965         0.48442
C         30.33234        37.36354         0.42773
C         30.40453        40.61993         0.51526
C         30.24653        41.84268         0.21090
C         32.54100        28.92999         0.17858
C         31.52847        29.52754        -0.29177
C         32.72313        31.51400         1.29895
C         30.88258        30.60484         0.35481
C         32.65114        32.99070         1.39306
C         31.33366        33.79560         1.14878
C         32.64836        35.96659         0.74946
C         31.33398        35.32251         1.21827
C         32.70893        37.47406         0.69996
C         31.41019        38.27551         0.99936
C         32.73540        40.42107         0.43748
C         31.43843        39.69428         0.52638
C         32.71300        41.92255         0.18486
C         31.39483        42.75721         0.23471
C         32.65905        44.52807        -0.84901
C         31.58842        44.01464        -0.48997
C         35.21192        27.41646        -0.38741
C         35.10980        28.66534         0.38006
C         33.82424        29.35587         0.72775
C         35.22242        31.50264         1.28816
C         33.86835        30.81325         1.06003
C         35.10958        33.00479         1.02251
C         33.93846        33.70266         1.16350
C         35.20479        35.96847         0.96989
C         33.91444        35.16555         0.80320
C         35.14395        37.30621         0.22014
C         33.86560        38.08383         0.31797
C         35.21260        40.19919        -0.39497
C         33.98531        39.57424         0.23421
C         35.19243        41.68915        -0.56141
C         33.88000        42.45410        -0.60446
C         35.23910        44.38436        -1.52251
C         33.89695        43.81807        -1.25411
C         35.63271        45.33972        -2.39117
C         37.63184        27.23395        -0.27042
C         36.24665        26.83303        -0.71537
C         37.54928        28.78550        -0.43744
C         36.37861        29.47647         0.23527
C         37.60111        31.63485         0.27920
C         36.39086        30.80121         0.56098
C         37.70602        32.97429         0.97232
C         36.41126        33.77215         1.28485
C         37.70971        35.93157         0.65152
C         36.42132        35.12738         0.49699
C         37.70561        37.28684         0.50902
C         36.46827        37.99975         0.05416
C         37.67318        40.25235         0.36442
C         36.59783        39.46585        -0.37210
C         37.68706        41.76190         0.19653
C         36.42761        42.49053        -0.21490
C         37.75721        44.64301        -0.72082
C         36.34644        44.02401        -0.48816
C         37.89568        45.82345        -1.67694
C         36.79328        45.92376        -2.44371
C         40.09996        24.46381        -0.89966
C         39.09203        25.14009        -0.68593
C         40.09584        27.33451        -1.17164
C         38.81619        26.57573        -0.92465
C         40.10829        28.85851        -1.13011
C         38.79101        29.56213        -0.79741
C         40.15302        31.74183        -0.40262
C         38.80557        31.03734        -0.43606
C         40.25382        32.94949         0.47734
C         38.99336        33.71138         0.82963
C         40.25494        35.87352         1.03950
C         39.02318        35.18704         0.46279
C         40.26019        37.38286         0.95557
C         39.02971        38.03112         0.30395
C         40.27442        40.33644         0.84597
C         38.93530        39.53742         0.69666
C         40.18815        41.75424         0.21549
C         39.01902        42.42685         0.01562
C         40.32706        44.42420        -0.92707
C         39.02192        43.87245        -0.40298
C         40.38774        45.93225        -1.10413
C         39.16070        46.62070        -1.80726
C         39.99141        48.62683        -0.51962
C         39.15679        47.97956        -1.15430
C         42.70736        24.52676        -1.07797
C         41.36989        24.87246        -1.55478
C         42.71264        27.28409        -1.09075
C         41.39023        26.58858        -0.82749
C         42.73682        28.78362        -1.18291
C         41.43110        29.59796        -1.17815
C         42.75808        31.73527        -0.36608
C         41.45112        31.08452        -0.78304
C         42.83578        32.95277         0.24245
C         41.57193        33.61719         0.69750
C         42.86181        35.90698         1.00429
C         41.54910        35.10274         1.04641
C         42.74733        37.29781         0.29639
C         41.54164        38.12399         0.73581
C         42.77041        40.32234         0.33353
C         41.46707        39.55233         0.15733
C         42.78717        41.67848         0.32717
C         41.49873        42.50445         0.41030
C         42.76993        44.58314        -0.28987
C         41.57862        43.74973        -0.49016
C         42.57562        45.91515         0.40018
C         41.38036        46.67192        -0.23222
C         42.39307        48.72211         0.54195
C         41.03373        48.09003         0.41392
C         43.75799        25.09284        -0.75569
C         45.19703        27.26389        -0.20553
C         43.93660        26.54140        -0.51967
C         45.29793        28.75946        -0.72905
C         43.91890        29.47531        -0.46349
C         45.54684        31.65469         0.63917
C         43.89115        30.93846        -0.94909
C         45.40378        33.04172         0.46565
C         44.07133        33.63974         0.87576
C         45.32331        35.89357         0.65702
C         44.03840        35.10013         0.35532
C         45.35486        37.31037         0.08886
C         44.06505        38.05759         0.49689
C         45.30892        40.25831         0.05124
C         44.04601        39.55055         0.45031
C         45.42247        41.72224         0.44176
C         44.06848        42.45978         0.41320
C         45.28209        44.64926        -0.48000
C         44.04570        43.91632         0.05130
C         45.17881        46.19651        -0.13091
C         43.85867        46.80620         0.20776
C         43.47237        48.13912         0.71013
C         47.64935        27.31771         0.14544
C         46.56628        26.76422        -0.07025
C         48.00355        28.72832        -0.07151
C         46.69857        29.51544        -0.34044
C         47.93848        31.52333         0.80895
C         46.72481        31.04255        -0.06385
C         47.94607        33.05195         0.70038
C         46.64524        33.70054         1.12081
C         47.95187        35.92988         1.19994
C         46.60358        35.21888         1.03063
C         47.86855        37.44708         0.96993
C         46.59576        38.10020         0.52792
C         47.86308        40.31115         0.23156
C         46.62520        39.52866         0.07274
C         47.85204        41.66269        -0.35195
C         46.50136        42.42374        -0.42462
C         47.84624        44.65703        -0.55088
C         46.59107        43.94059        -0.00350
C         47.63363        46.08344        -0.22125
C         46.56690        46.65403         0.02873
C         50.64319        29.08340         0.15979
C         49.26784        29.47233         0.25016
C         50.20594        31.69888        -0.31833
C         49.17666        30.85475         0.29616
C         50.31649        33.10108         0.14034
C         49.06862        33.78241         0.41792
C         50.47170        35.87205         0.77246
C         49.07623        35.30454         0.35093
C         50.43494        37.41069         0.55621
C         49.20506        38.23054         0.99732
C         50.43820        40.37784         0.27934
C         49.16074        39.52883         0.12834
C         50.46081        41.65896        -0.18381
C         49.17482        42.35757        -0.58358
C         50.47206        44.40708        -0.54589
C         49.11991        43.90096        -0.72425
C         51.84534        29.35639         0.31720
C         52.98542        31.48033         0.33529
C         53.07496        30.06961         0.32246
C         52.58916        32.65134         0.20285
C         51.58776        33.66636         0.20254
C         52.85470        35.98857         0.45508
C         51.66314        35.17136         0.00974
C         52.83863        37.20489         0.65844
C         51.73307        38.18005         0.53810
C         52.84752        40.47653         0.41303
C         51.71646        39.64715         0.91590
C         52.89752        41.68611         0.16320
C         51.81873        42.42551        -0.55766
C         51.53184        43.86655        -0.20646
O         45.89004        39.82005        -1.20043
O         40.66371        29.37585        -2.37961
O         45.69085        35.76768         2.04918
O         44.36072        46.83397        -1.14631
O         40.79192        35.35152         2.27538
O         33.52959        42.65536        -2.02934
O         41.05466        43.57248        -1.85408
O         38.44373        44.83154         0.54965
O         35.79064        37.28869        -1.07826
O         38.57530        33.17856         2.11597
O         41.58146        46.54363        -1.66922
O         36.79925        42.34654         1.19764
O         44.16759        38.81610         1.72533
O         31.71878        33.33169         2.46967
O         44.26027        26.95161         0.85700
O         37.95597        39.80651         1.71779
O         40.99663        32.72898         1.72192
O         44.48287        31.29024        -1.95790
O         50.82545        31.32368        -1.31846
O         39.23394        37.89960        -1.08805
O         46.93357        38.03243         1.94335
O         33.66630        40.14079         1.54687
O         34.53692        28.51245         1.68469
O         37.77293        29.23981        -1.79226
O         33.20288        35.36870        -0.46349
O         37.81066        31.79527        -1.16838
O         40.55656        40.57142         2.16689
O         44.07851        43.49737         1.46940
O         40.98463        37.99827         2.06497
O         51.03462        37.87142        -0.68650
O         42.91923        27.96102        -2.35147
O         35.12597        40.79706        -1.71566
O         40.72105        31.91868        -1.73068
O         36.33944        33.96251         2.66546
O         31.51132        30.81909         1.61775
O         39.24840        26.87097        -2.27353
O         48.31938        44.32861        -1.85858
O         32.27350        42.64830         1.36754
O         47.63295        29.17396        -1.40824
O         48.52606        41.69609        -1.70280
O         42.55688        37.10157        -1.11624
H         42.17530        37.93625        -1.49902
O         54.25531        29.45588         0.36086
H         54.15556        28.48354         0.33952
O         51.49876        35.37240        -1.39383
H         52.28732        35.03768        -1.86922
O         46.54726        33.39440         2.55356
H         45.63807        33.69004         2.82964
O         51.97104        42.29385        -1.93917
H         52.81000        42.71225        -2.21947
O         31.19871        35.67399         2.59906
H         30.51871        35.10830         3.02233
O         49.41453        38.58737         2.36765
H         48.53183        38.73960         2.77706
O         46.73643        44.07028         1.40749
H         45.90974        43.75754         1.85390
O         45.25914        44.59464        -1.90168
H         44.67527        45.32096        -2.22526
O         37.09261        39.46104        -1.71727
H         36.64256        38.74191        -2.21262
O         31.20661        38.34594         2.39473
H         31.18478        37.42281         2.75755
O         41.41010        42.97420         1.76699
H         41.12209        42.16367         2.30082
O         45.33139        28.63568        -2.14023
H         46.27086        28.60267        -2.43951
O         41.26883        39.47964        -1.26632
H         40.41463        38.96106        -1.44303
O         41.26349        24.91607        -2.91393
H         40.39048        25.29636        -3.16300
O         39.45713        46.72071        -3.18236
H         40.36688        47.08398        -3.26633
O         46.96749        31.71730        -1.29876
H         46.16585        31.66052        -1.87579
O         43.85823        34.92242        -1.04452
H         44.00460        35.77741        -1.51525
O         50.76271        35.58626         2.13697
H         50.01686        35.89571         2.70614
O         35.35290        36.30714         2.34733
H         35.72914        35.49987         2.81805
O         46.03162        42.31753        -1.75866
H         46.73560        42.64105        -2.36493
O         51.66562        39.75528         2.32252
H         51.79964        40.68914         2.58300
O         45.38847        37.17611        -1.34106
H         45.49189        38.07648        -1.73804
O         36.26981        34.72263        -0.85936
H         36.36601        35.51496        -1.43949
O         41.30756        26.41441         0.57806
H         42.10462        25.94536         0.90805
O         39.23424        35.19438        -0.97507
H         39.23343        36.15673        -1.26890
O         40.47924        47.84199         1.67177
H         40.28957        48.68845         2.12400
O         48.25713        35.75400         2.59793
H         47.44912        36.03360         3.08843
O         44.92196        30.99587         1.59986
H         44.32423        31.61253         2.08943
O         47.77282        31.10016         2.16390
H         47.28854        31.82439         2.64774
O         43.21809        36.15795         2.37243
H         42.41158        36.52284         2.81494
O         43.87956        33.54996         2.31586
H         43.52355        34.42199         2.64548
O         48.79643        35.71128        -0.99650
H         49.61601        35.61484        -1.53841
O         35.52874        31.42273         2.69721
H         35.90939        32.31183         2.98237
O         35.82735        44.61598         0.70898
H         36.47823        44.44282         1.42827
O         37.75812        26.92868         1.10724
H         36.92920        27.15161         1.58141
O         45.88769        41.68452         1.80776
H         45.19150        41.28035         2.36941
O         43.44382        29.42540         0.89047
H         43.59291        28.51332         1.25024
O         42.40620        45.68183         1.79809
H         42.07179        44.76193         1.95279
O         49.04986        39.09316        -1.24718
H         49.02296        39.90257        -1.81894
