         234
 CSIRO Nanostructure Databank - Neutral Graphene Oxide Data Set
C          1.17383         1.98165         0.62744
C          1.03479         3.26434         0.16893
C          2.44497         1.34865         0.74217
C          2.21171         4.06222        -0.22625
C          0.95806         6.39852        -0.17007
C          0.99315         7.72564         0.06829
C          2.16932         5.57521        -0.38572
C          2.27303         8.47103         0.19052
C          1.22110        10.74263         0.89127
C          1.27977        12.07346         1.05896
C          2.40583         9.93713         0.52189
C          2.48371        12.85153         0.67840
C          1.69580        15.00599         1.89395
C          1.97079        16.23100         2.40262
C          2.65442        14.31515         1.01291
C          3.17266        16.95154         2.04089
C          3.39454        18.27642         2.50918
C          3.62481         2.06945         0.52281
C          3.51153         3.49611         0.23376
C          4.89277         1.39642         0.48867
C          4.52601         4.34837         0.66797
C          3.48651         6.31664        -0.42577
C          3.48986         7.82972        -0.38747
C          4.74006         5.66568         0.03632
C          4.78004         8.53823        -0.33062
C          3.65789        10.64337         0.15363
C          3.74177        12.06537         0.44313
C          4.83573         9.94183        -0.21640
C          5.00791        12.85188        -0.00047
C          3.97047        14.97027         0.76493
C          4.12142        16.34764         1.18712
C          4.93893        14.33441         0.00875
C          5.25027        17.09581         0.74858
C          4.48913        19.00514         2.09683
C          5.42530        18.45805         1.16611
C          6.10109         1.94341         0.01050
C          6.16305         3.25369        -0.72188
C          7.36483         1.32675         0.09221
C          7.32782         4.11747        -0.27529
C          5.94858         6.29636        -0.20893
C          5.95276         7.71891        -0.66774
C          7.26929         5.59777        -0.11694
C          7.25142         8.48418        -0.85183
C          6.07035        10.67508        -0.58783
C          6.04331        12.10711        -0.70713
C          7.24635         9.95609        -0.82889
C          7.17606        12.84052        -1.29527
C          6.00065        15.12382        -0.66093
C          6.10649        16.54845        -0.25108
C          7.20162        14.35493        -1.25827
C          6.97974        17.42970        -0.87911
C          6.51652        19.21567         0.68126
C          7.35619        18.69161        -0.32415
C          8.59421         2.00005        -0.25137
C          8.60282         3.40954        -0.50760
C          9.83654         1.31854        -0.15770
C          9.79230         4.17772        -0.60674
C          8.56131         6.34415        -0.26897
C          8.55074         7.81668        -0.51804
C          9.80037         5.57258        -0.52694
C          9.82408         8.50295        -0.87088
C          8.49512        10.55686        -1.47020
C          8.49966        12.08361        -1.48965
C          9.80527         9.93124        -1.04779
C          9.74957        12.82369        -1.20585
C          8.54272        14.97607        -1.42640
C          8.66350        16.36971        -1.64923
C          9.73271        14.22306        -1.25362
C          9.80757        17.13406        -1.31405
C          8.60726        19.28691        -0.68144
C          9.76621        18.56944        -1.06937
C         11.06922         1.98015        -0.36241
C         11.04793         3.40547        -0.77207
C         12.30652         1.34117        -0.18478
C         12.35579         4.16194        -0.76958
C         11.07769         6.36704        -0.35492
C         11.00082         7.78960        -0.87119
C         12.35853         5.64307        -0.70832
C         12.25161         8.52027        -1.13468
C         10.99616        10.66400        -1.00245
C         10.99296        12.11323        -0.97477
C         12.26035         9.97943        -0.93827
C         12.19415        12.79346        -0.72628
C         11.07715        14.93278        -1.41204
C         11.02509        16.42621        -1.14661
C         12.11238        14.28078        -0.46589
C         12.23031        17.10270        -0.99083
C         11.01928        19.23833        -0.97587
C         12.24054        18.54364        -0.94352
C         13.54480         2.05663        -0.13348
C         13.54874         3.44575        -0.33400
C         14.79397         1.36441         0.13507
C         14.72663         4.25168        -0.02829
C         13.54477         6.32398        -0.75481
C         13.56774         7.78271        -1.03609
C         14.81651         5.65150        -0.53401
C         14.78082         8.54596        -0.75306
C         13.46900        10.66124        -0.76914
C         13.45642        12.10392        -0.63306
C         14.73273         9.94280        -0.64687
C         14.66622        12.79571        -0.42962
C         13.43503        15.00423        -0.57999
C         13.46399        16.34601        -0.82568
C         14.63589        14.26082        -0.06078
C         14.75770        17.07869        -1.05073
C         13.47387        19.22613        -0.74391
C         14.69982        18.54889        -0.69227
C         15.98387         2.03413         0.31582
C         15.96462         3.51433         0.37393
C         17.28237         1.38534         0.39127
C         17.26983         4.19143         0.10375
C         16.00801         6.32615        -0.58964
C         16.08149         7.79964        -0.97176
C         17.29475         5.59772        -0.40353
C         17.25304         8.47444        -0.27392
C         15.92753        10.68365        -0.35282
C         15.91837        12.09817        -0.29535
C         17.16360         9.95454        -0.01698
C         17.14940        12.81697        -0.08239
C         15.94266        14.98231        -0.27585
C         15.95960        16.36274        -0.47588
C         17.16570        14.26173        -0.10416
C         17.16469        17.09403        -0.31338
C         15.89936        19.22656        -0.46375
C         17.14474        18.54021        -0.34187
C         18.45078         2.07538         0.61287
C         18.36947         3.56289         0.93482
C         19.74676         1.42421         0.65373
C         19.70090         4.30554         0.89066
C         18.60887         6.35360        -0.32781
C         18.63849         7.87826        -0.49453
C         19.78475         5.67942         0.29617
C         19.70439         8.56413         0.35540
C         18.41536        10.69604         0.19216
C         18.39004        12.10968         0.14047
C         19.62538         9.98337         0.48531
C         19.60420        12.82825         0.36262
C         18.37904        14.98505        -0.03417
C         18.37778        16.40074        -0.05328
C         19.70044        14.26903        -0.06264
C         19.59214        17.14851         0.16305
C         18.33478        19.24602        -0.14688
C         19.56094        18.57314         0.10788
C         20.92426         2.08281         0.81946
C         21.00018         3.55483         0.93853
C         22.22381         4.32106         0.63341
C         20.99642         6.45105         0.64672
C         20.89263         7.88048         0.72986
C         22.20617         5.70300         0.66904
C         21.98444         8.63853         1.25118
C         20.77410        10.72323         0.91124
C         20.75933        12.16319         0.82809
C         21.93335        10.01109         1.31739
C         21.89979        12.93690         1.20330
C         20.81695        15.04000         0.59831
C         20.80574        16.47981         0.51540
C         21.89498        14.32819         1.13461
C         21.95637        17.25495         0.77965
C         20.74855        19.31036         0.35780
C         21.92527        18.65050         0.68656
O         11.47272        14.77294        -2.74045
O          2.61913         8.87605         1.56370
O          6.12571        14.87909        -2.09594
O          6.54806         7.91541        -2.00905
O         16.96533         8.89619         1.06313
O          7.68491        12.49542        -2.63419
O          5.60665         3.46498        -1.78538
O          7.38776         4.73177         1.07942
O          4.81298        12.36775         1.39628
O         17.46298         4.42391        -1.30845
O         19.60237         5.70206        -1.18716
O          2.08350         4.67390        -1.55306
O          7.54555        17.07091        -2.11307
O         20.37108         4.15379         2.17256
O         15.14770         4.12774         1.40133
O          3.47612         7.10577        -1.66011
O         11.75100         3.66222        -2.03101
O          2.12909        13.86411        -0.31531
O         12.96770         8.08706        -2.36120
O          8.63639         7.32922         0.87667
O         16.33221         7.87850        -2.39832
H         15.52180         7.59030        -2.87047
O         11.22428         6.54653         1.10757
H         10.34860         6.88288         1.43074
O         19.00218         8.16192        -1.86323
H         19.52052         7.38910        -2.18787
O         20.07983        14.21944        -1.50392
H         20.92346        13.72168        -1.56210
O         11.64153        14.45174         0.90091
H         12.42795        14.32999         1.48439
O         17.88339         3.66424         2.29505
H         18.66997         3.58631         2.88378
O          8.37915        10.10153        -2.85257
H          7.83922        10.77549        -3.33142
O         14.43916        14.25619         1.41799
H         15.16694        13.72244         1.80520
O          5.17120         3.95148         1.78350
H          5.97947         4.49532         1.95942
O         14.96438        17.06647        -2.50572
H         14.55101        16.25423        -2.86942
H          0.27342         1.39114         0.85147
H          0.03385         3.67908        -0.01747
H          2.48992         0.27107         0.95458
H         -0.01500         5.89285        -0.25851
H          0.05285         8.27553         0.22036
H          0.29992        10.19762         1.14266
H          0.37968        12.62907         1.35808
H          0.75379        14.50122         2.14908
H          1.25283        16.72308         3.07514
H          2.66197        18.72445         3.19597
H          4.91953         0.36376         0.87541
H          4.63227        20.03628         2.45029
H          7.43638         0.29864         0.48192
H          6.72395        20.20724         1.10941
H          9.84305         0.25468         0.12389
H          8.77227        20.32343        -0.34404
H         12.31693         0.26489         0.04558
H         11.02585        20.33169        -0.84975
H         14.78300         0.26358         0.12754
H         13.45815        20.31692        -0.59221
H         17.31995         0.29323         0.24837
H         15.88660        20.32032        -0.33580
H         19.76236         0.33101         0.52016
H         18.32123        20.34616        -0.15633
H         21.86875         1.51828         0.80710
H         23.17632         3.78203         0.52997
H         23.16507         6.24233         0.63717
H         22.89077         8.11329         1.58221
H         22.81376        10.55279         1.68662
H         22.78815        12.44201         1.61495
H         22.76513        14.86852         1.53373
H         22.90455        16.76428         1.03776
H         20.72240        20.40783         0.30075
H         22.84115        19.22585         0.88086
