         317
 CSIRO Nanostructure Databank - Neutral Graphene Oxide Data Set
C         31.39167        32.09145        -3.02855
C         31.45046        33.31469        -2.89694
C         31.77226        36.45863        -2.75930
C         31.63965        37.63183        -2.39157
C         31.09846        40.79100        -1.45939
C         30.84305        41.91627        -1.01767
C         33.80447        29.37610        -2.46361
C         32.84422        29.97421        -2.94829
C         32.95228        31.67095        -1.10209
C         31.82030        30.86603        -2.37692
C         32.77996        33.19446        -0.85359
C         32.52038        34.04302        -2.13141
C         33.49812        36.11806        -1.02360
C         32.21683        35.46313        -1.66958
C         33.18713        37.54631        -0.53804
C         32.15785        38.40799        -1.26086
C         32.79163        40.39987         0.15398
C         32.32716        39.91329        -1.28930
C         32.96064        41.93927         0.19889
C         31.27398        42.65655         0.19664
C         32.69786        44.60265         0.81807
C         31.75947        44.04660         0.24601
C         35.80919        27.40754        -0.70756
C         35.74956        28.88975        -0.84536
C         34.32890        29.39904        -1.03440
C         35.13961        31.59908         0.22104
C         34.11646        30.87462        -0.58801
C         34.75983        32.84520         0.65161
C         33.93636        33.83231        -0.04993
C         35.16796        35.93325         1.05327
C         34.19029        35.19307         0.00990
C         35.34892        37.44284         0.83740
C         34.37887        38.29286         0.02774
C         35.12511        40.34814         1.32388
C         34.00356        39.62160         0.67481
C         35.15745        41.84185         1.32730
C         33.98430        42.54386         1.14780
C         35.20609        44.72758         0.98167
C         33.95134        44.07215         1.46867
C         35.44480        46.05423         0.66549
C         37.65342        27.12566         0.81708
C         36.79498        26.78596        -0.27640
C         37.62209        28.64645         1.03212
C         36.35551        29.43342         0.57921
C         37.52658        31.56195         1.58456
C         36.56043        31.00177         0.45631
C         37.69098        33.10024         1.51864
C         36.55623        33.90035         1.49007
C         37.77575        35.93615         1.58951
C         36.55641        35.27994         1.28959
C         37.65440        37.39604         1.82764
C         36.40990        38.09698         1.38200
C         37.64576        40.24019         1.12458
C         36.39516        39.60266         1.72044
C         37.63443        41.77315         1.13415
C         36.46819        42.49478         1.21646
C         37.70932        44.62061         0.32968
C         36.42511        43.91713         0.73430
C         37.82326        46.12409         0.29393
C         36.52205        46.66513         0.37636
C         40.04350        24.92752        -0.29165
C         39.17355        25.21886         0.53624
C         40.19271        27.79064        -0.28100
C         38.59761        26.26588         1.35008
C         40.19631        28.82757         0.60846
C         38.90691        29.43773         1.01044
C         40.07593        31.52131         1.60143
C         38.89505        30.89847         1.29980
C         39.77966        32.74760         2.42018
C         38.91168        33.77940         1.75758
C         40.24974        35.90243         2.34483
C         38.97419        35.19133         1.88163
C         40.24203        37.43270         2.29698
C         38.92271        38.17962         2.05264
C         40.17743        40.20941         1.06870
C         38.93481        39.70116         1.82817
C         40.23267        41.76890         1.14926
C         38.91335        42.39974         0.57556
C         40.13708        44.52468        -0.17686
C         38.99881        43.93602         0.72926
C         40.40466        45.98922         0.20278
C         39.06195        46.75419         0.22454
C         40.37130        48.78913        -0.19303
C         39.33887        48.13336         0.08006
C         42.51004        25.02567        -1.46662
C         41.46136        25.42577        -0.44774
C         42.69009        27.69271        -0.52703
C         41.39499        26.97964        -0.60908
C         42.74936        28.96729         0.26998
C         41.50605        29.43997         1.10687
C         42.84951        31.70857         1.35458
C         41.39740        31.02115         0.98043
C         42.80338        33.23476         1.53588
C         42.06963        33.78961         2.58154
C         42.91013        36.08826         2.27153
C         41.68885        35.25641         2.53023
C         42.73892        37.44223         1.57806
C         41.56473        38.24906         2.25328
C         42.62224        40.31137         1.44374
C         41.46242        39.62392         1.58590
C         42.80063        41.76213         0.95290
C         41.45915        42.31872         0.42699
C         42.77366        44.41460        -0.31808
C         41.42557        43.69724        -0.15945
C         42.61582        45.83054        -0.99717
C         41.50393        46.55851        -0.69947
C         42.84772        48.67753        -0.96777
C         41.41117        48.31575        -1.13853
C         43.52242        25.73920        -1.51345
C         44.79427        28.03670        -1.75146
C         44.04814        26.98841        -0.88065
C         44.99672        29.39525        -1.01726
C         43.91029        29.84663        -0.07630
C         45.24636        31.86760         0.49236
C         43.85690        31.34810         0.19162
C         45.31730        33.12821         1.10701
C         44.06776        34.07620         1.14038
C         45.42246        36.19519         1.82658
C         44.22420        35.28268         2.17009
C         45.34097        37.62689         1.39787
C         44.02204        38.28201         1.64879
C         45.69033        40.67566         1.01674
C         43.85275        39.62508         1.80648
C         45.27535        41.45825        -0.00333
C         43.83431        41.94172        -0.19827
C         44.66226        43.62951        -1.80841
C         43.79616        43.36459        -0.80213
C         44.69446        45.85243        -2.39379
C         43.83836        46.52257        -1.56482
C         43.77628        47.93325        -1.33292
C         47.23355        28.21104        -1.91038
C         46.20806        27.48436        -2.07065
C         47.58088        29.22060        -1.04149
C         46.31720        29.72260        -0.34432
C         47.68120        31.82646         0.14456
C         46.41630        31.18026         0.08829
C         47.79737        33.01848         0.88721
C         46.61993        33.48680         1.51356
C         47.83112        36.06333         1.12180
C         46.64749        35.63106         1.93780
C         48.00242        37.56960         1.33258
C         46.66930        38.34075         1.13229
C         47.94013        40.25491         0.04052
C         46.94654        39.86539         1.12475
C         47.64872        41.29952        -0.97345
C         46.22437        41.76002        -1.11440
C         47.31053        43.75199        -2.19961
C         45.98595        42.94784        -1.99275
C         46.95963        45.02849        -2.91106
C         46.09636        45.89483        -2.69645
C         50.11632        29.29049        -1.38055
C         48.90897        29.69695        -0.56439
C         50.17572        32.03956        -0.55233
C         48.82358        31.28166        -0.69662
C         50.37022        33.06281         0.60928
C         49.09072        33.78241         1.06191
C         50.41273        36.04594         1.06929
C         49.14152        35.29054         1.33139
C         50.38243        37.29034         0.48293
C         49.07966        37.99004         0.33869
C         50.20636        39.89374        -1.00702
C         49.02681        39.30879        -0.32711
C         50.01146        40.92358        -1.88995
C         48.57222        41.40590        -2.19739
C         49.76192        43.34990        -2.89491
C         48.46615        42.90997        -2.67873
C         51.18013        29.93894        -1.39538
C         52.66504        31.97718        -0.51731
C         51.68284        30.88912        -0.39996
C         52.69011        33.12278        -0.04687
C         51.58352        34.11429         0.19256
C         52.83737        36.16567         0.93091
C         51.72094        35.20907         1.27117
C         52.70739        37.21065         0.27937
C         51.56648        38.02779        -0.02013
C         52.49648        39.94944        -1.43778
C         51.48763        39.20898        -0.73184
C         52.43672        40.92667        -2.19602
C         51.16848        41.46982        -2.79957
C         50.97830        42.99097        -2.83812
O         34.02782        39.72136         2.12231
O         36.90115        44.00816        -0.68786
O         49.24022        34.33375         2.41235
O         31.87735        37.79579         0.01774
O         48.53741        38.10316        -1.01905
O         38.21676        28.92596         2.32900
O         48.35929        41.64387         0.25356
O         44.23615        44.57337        -2.76570
O         46.76101        34.39768         2.55520
O         35.34456        33.31439         1.82163
O         45.81321        41.60166        -2.52395
O         39.68707        32.67789         3.64425
O         32.77615        30.95758         0.12568
O         43.91559        29.00042         1.14825
O         45.87371        37.88312         0.00630
O         40.06700        36.69746         3.54585
O         38.04007        37.83005         3.16473
O         41.91947        27.67937        -1.78633
O         44.90865        40.46416         2.15438
O         42.36601        35.97420         3.61950
O         44.44108        34.65093         3.43151
H         44.19822        35.27997         4.14413
O         42.36854        37.16111         0.21574
H         43.05174        36.56774        -0.17829
O         49.13441        29.30625         0.77883
H         50.08763        29.48623         0.99799
O         31.19630        35.47074        -0.71595
H         30.44121        34.93816        -1.04045
O         31.61975        33.24998        -0.01540
H         31.68965        32.50582         0.62480
O         48.46831        37.72901         2.67815
H         48.34811        38.67575         2.93967
O         36.42455        39.72909         3.15670
H         35.56353        39.39018         3.49004
O         41.93516        33.13167         3.75281
H         41.34539        33.61305         4.37165
O         47.65135        44.15067        -0.85008
H         48.50203        44.63844        -0.87252
O         47.48994        35.77308        -0.25171
H         46.85432        36.46535        -0.56948
O         30.52787        42.36777         1.31025
H         30.30293        41.40930         1.29617
O         41.69522        29.05641         2.45995
H         42.63734        29.25554         2.68446
O         37.01190        31.20330         2.86647
H         37.70454        31.38418         3.53914
O         33.48874        42.38480        -1.05898
H         33.50732        43.36772        -1.06854
O         51.77549        30.21647         0.80710
H         52.03968        30.85454         1.50912
O         46.42219        28.90425         0.87454
H         47.34160        28.98154         1.23022
O         33.47457        28.56247        -0.29080
H         32.78847        29.12237         0.14174
O         35.18273        38.73471        -1.11964
H         35.19076        37.99633        -1.78103
O         34.50712        36.31822        -2.04795
H         34.59843        35.46248        -2.54202
O         37.65904        39.80298        -0.25611
H         36.73550        39.64858        -0.58554
O         33.26137        40.15608        -2.31032
H         33.42700        41.12577        -2.36807
O         48.36703        31.42468        -2.07521
H         48.77438        30.70564        -2.60910
O         48.08273        40.55415        -3.23044
H         48.77236        40.49060        -3.92674
O         51.82586        34.66370         2.56305
H         51.80023        35.38748         3.22176
O         39.66243        44.58448        -1.52492
H         39.44126        43.66072        -1.79599
O         51.30138        34.84368        -0.97091
H         51.26758        34.22653        -1.73825
O         50.96651        40.96453        -4.09773
H         51.66387        41.31358        -4.69050
O         36.55554        29.27702        -1.95258
H         37.35823        28.70953        -1.96786
O         33.70757        33.98950        -2.94376
H         33.45179        34.19474        -3.86841
O         50.80272        32.33522         1.76598
H         50.79744        32.97862         2.51815
O         43.22002        42.50781         2.09543
H         42.49314        42.46919         2.75669
O         39.14583        27.60048        -1.13764
H         39.27727        26.77137        -1.64478
O         43.35582        31.09593         2.54151
H         43.02064        31.59576         3.31859
O         30.83652        30.18560        -1.71551
H         31.16805        29.31046        -1.42908
O         40.94499        46.06188         1.54932
H         40.96240        47.00899         1.80803
O         40.10179        39.79427        -0.30818
H         40.89268        40.14240        -0.77824
O         39.25179        26.50370         2.49610
H         38.99229        27.40986         2.81758
O         43.28033        44.78565         0.97913
H         42.58490        45.32414         1.43607
O         50.44105        32.65110        -1.78693
H         49.66830        32.48768        -2.38582
O         34.45002        35.86267         2.30376
H         34.41215        34.91609         2.57233
O         31.70907        40.06954         1.04747
H         32.09937        39.77177         1.90048
O         35.32918        29.24656         1.55064
H         35.68509        29.56170         2.41249
O         33.85821        44.21164         2.88482
H         32.96909        43.91573         3.17024
O         43.35209        41.03833        -1.23158
H         43.95943        41.10747        -2.00740
O         40.98834        48.44510        -2.43880
H         41.71655        48.22761        -3.05397
O         38.97309        40.24981         3.15794
H         38.23211        39.82570         3.66119
O         40.49598        42.16896         2.51601
H         39.92082        41.63478         3.12473
O         41.93582        38.54579         3.60726
H         41.64884        37.78417         4.16536
O         43.96104        34.65136        -0.16524
H         43.85616        33.88978        -0.79521
O         44.08691        28.25085        -2.94524
H         44.40098        29.07807        -3.36280
O         44.82901        26.63495         0.23129
H         45.21168        27.45372         0.63865
O         37.30917        31.37693        -0.71863
H         36.94658        30.90368        -1.51102
O         43.52355        32.05129        -1.03267
H         42.59327        31.82625        -1.27590
O         47.57275        40.19168         2.39257
H         47.85590        41.13224         2.33841
O         39.14860        44.32112         2.09845
H         39.88762        43.80266         2.50401
O         38.85731        42.13895        -0.83766
O         41.34021        42.50264        -1.00211
H         38.71046        41.16638        -0.96373
O         41.17366        31.27786        -0.43345
H         40.34478        30.82774        -0.70576
O         42.04481        25.21690         0.82384
H         42.21405        24.26141         0.95220
