         429
 CSIRO Nanostructure Databank - Neutral Graphene Oxide Data Set
C          1.23175         3.75397        -1.80531
C          0.05397         4.44845        -1.72371
C          1.20409         6.50904        -1.10001
C          0.03605         5.82313        -1.32846
C          1.25813         7.86537        -0.42035
C         -0.00709         8.68328        -0.38683
C          1.31654        10.74303        -0.09052
C          0.05873        10.01095        -0.13851
C          1.36797        12.12531         0.28431
C          0.27491        12.77411         0.90737
C          1.43424        14.90849         0.82886
C          0.33199        14.12352         1.21995
C          1.42186        16.35600         0.99268
C          0.48507        17.01446         1.82568
C          1.07219        19.17418         0.89750
C          0.36994        18.40173         1.84497
C          1.09324        20.64620         0.91450
C         -0.06384        21.33792         1.32249
C          1.14829        23.45423         1.41079
C         -0.05110        22.70997         1.50959
C          1.16446        24.88824         1.70992
C         -0.06450        25.53200         1.93503
C          1.10127        27.55765         2.53889
C         -0.09202        26.84340         2.37006
C          0.84314        29.86681         2.26081
C         -0.29184        30.28623         1.55897
C          1.07815        32.07052         0.55598
C         -0.16003        31.41316         0.74529
C          1.16324        33.34435        -0.13614
C          0.04169        33.92894        -0.77251
C          1.26658        35.99496        -1.12475
C          0.09811        35.21355        -1.28036
C          1.34186        37.31538        -1.72108
C          3.69666         3.73386        -1.72350
C          2.48674         4.40352        -1.55624
C          3.67664         6.51027        -1.11689
C          2.47799         5.82511        -1.24374
C          3.70811         7.97659        -1.19341
C          2.41414         8.70205        -0.93746
C          3.72175        10.81733        -0.66778
C          2.49193        10.11684        -0.53489
C          3.74353        12.22675        -0.45330
C          2.55663        12.87225         0.01223
C          3.66114        15.05517        -0.26389
C          2.53714        14.28597         0.17673
C          3.37389        16.48985        -0.69040
C          2.26744        17.12835         0.15825
C          3.55983        19.68984        -0.56408
C          1.88478        18.46507        -0.00717
C          3.53584        20.75995         0.28111
C          2.29381        21.38991         0.72401
C          3.61506        23.47723         1.19832
C          2.33653        22.77243         1.06974
C          3.62524        24.90480         1.54784
C          2.38356        25.62940         1.80243
C          3.68123        27.77440         2.28647
C          2.36598        27.01928         2.19209
C          3.88064        29.27041         2.14177
C          2.05364        30.52969         2.10674
C          3.58242        32.09426         0.90286
C          2.25716        31.55596         1.17570
C          3.60310        33.42260         0.39627
C          2.37642        34.07598        -0.04781
C          3.58289        36.25748        -0.24997
C          2.39323        35.42366        -0.49410
C          3.64016        37.63939        -0.89800
C          2.47011        38.06372        -1.68606
C          6.15145         3.72054        -1.63626
C          4.94602         4.37513        -1.48831
C          6.20325         6.56028        -1.19587
C          4.95456         5.76470        -0.88757
C          6.20096         7.99290        -1.10563
C          4.97302         8.71731        -1.05804
C          6.19249        10.86425        -0.94427
C          4.95835        10.12315        -0.92540
C          6.20277        12.29441        -0.87957
C          4.94819        12.97978        -0.62077
C          6.15609        15.17839        -0.45963
C          4.86674        14.40285        -0.54447
C          6.00697        16.65731        -0.78742
C          4.68165        17.33757        -0.88075
C          6.03419        19.67727        -0.98269
C          4.73559        18.87400        -0.92410
C          5.99253        20.98242        -0.16447
C          4.84387        21.30087         0.80156
C          6.08918        23.39129         1.60926
C          4.80083        22.78327         1.10391
C          6.11525        24.89063         1.54623
C          4.84820        25.56711         1.61367
C          6.13248        27.71853         1.49687
C          4.90808        27.00336         1.91954
C          5.98534        29.08348         0.84445
C          4.83617        29.90369         1.39389
C          6.02468        31.97887         0.66915
C          4.80781        31.35379         1.06444
C          6.04971        33.35750         0.28668
C          4.84301        34.08854         0.23852
C          6.17464        36.23467        -0.26531
C          4.86497        35.55769         0.07869
C          6.14645        37.53949        -0.98305
C          4.95724        38.18776        -1.24615
C          8.60035         3.71756        -1.50580
C          7.40438         4.40973        -1.48350
C          8.65189         6.56235        -1.32654
C          7.40419         5.86172        -1.34592
C          8.66098         7.97569        -1.12230
C          7.42679         8.71005        -1.05850
C          8.65016        10.87339        -0.90473
C          7.42632        10.15019        -0.98724
C          8.68748        12.28111        -1.04864
C          7.43244        13.01348        -1.07696
C          8.32387        15.29997        -1.61270
C          7.33331        14.47522        -1.13703
C          8.39566        16.70607        -1.26994
C          7.17265        17.39496        -0.88247
C          8.46642        19.45833        -0.46556
C          7.25793        18.83785        -0.73123
C          8.54102        20.83650        -0.04643
C          7.29930        21.60771         0.17570
C          8.54049        23.42838         1.26104
C          7.36085        22.79498         1.06434
C          8.62236        24.82744         1.84698
C          7.31484        25.58091         1.64663
C          8.62176        27.78984         1.52141
C          7.31714        27.02216         1.51046
C          8.53096        29.02631         0.62157
C          7.28301        29.84976         0.84936
C          8.53640        31.88387         0.38808
C          7.28450        31.21593         0.68842
C          8.48442        33.16386        -0.31179
C          7.28007        34.01718        -0.15600
C          8.68522        36.04983        -0.68423
C          7.35314        35.36001        -0.43677
C          8.58581        37.37750        -1.42305
C          7.37121        38.06575        -1.49175
C         11.03762         3.64684        -1.34019
C          9.86967         4.38514        -1.44946
C         11.09665         6.53939        -1.26118
C          9.88305         5.84298        -1.40225
C         11.10394         7.93500        -0.94918
C          9.88675         8.64853        -0.91392
C         11.17382        10.76538        -0.51786
C          9.84661        10.07356        -0.42434
C         11.19588        12.17689        -0.53640
C         10.02228        12.91992        -0.97103
C         11.46306        14.94719        -1.02519
C         10.29485        14.20547        -1.42774
C         11.60147        16.34616        -1.15653
C          9.57219        17.41348        -1.29114
C         11.03295        19.16746        -0.00940
C          9.70561        18.63009        -0.47222
C         10.95414        20.61047         0.37322
C          9.73816        21.35375         0.40997
C         11.06407        23.40717         0.97794
C          9.80702        22.61510         1.24801
C         11.00457        24.83604         0.94319
C          9.85329        25.56289         1.30940
C         11.03846        27.68392         0.84975
C          9.85275        26.97226         1.16888
C         11.02328        29.13263         0.72435
C          9.81011        29.81458         0.68865
C         11.01808        31.92130         0.21397
C          9.77055        31.21191         0.41953
C         11.04468        33.20326        -0.36981
C          9.76733        33.75293        -0.86616
C         11.00044        35.84659        -1.59024
C          9.66826        35.16179        -1.44544
C         10.99071        37.18074        -2.02156
C          9.74532        37.89702        -2.01408
C         13.57254         3.57234        -1.03059
C         12.34842         4.27401        -1.44575
C         13.60570         6.47989        -0.96697
C         12.37008         5.82392        -1.40578
C         13.57332         7.87040        -0.75351
C         12.35955         8.60485        -0.71115
C         13.62321        10.70832        -0.23643
C         12.37915        10.02683        -0.47654
C         13.63293        12.11258        -0.04852
C         12.43509        12.84216        -0.30157
C         13.66961        14.96728         0.07829
C         12.51984        14.26024        -0.37476
C         13.64837        16.38112         0.11474
C         12.56557        17.08998        -0.45677
C         13.48555        19.17799         0.58864
C         12.46387        18.61568        -0.40467
C         13.18065        20.35506         1.19090
C         12.09976        21.23137         0.84197
C         13.58928        23.25081         0.51507
C         12.23774        22.67191         0.92895
C         13.55020        24.77480         0.35162
C         12.20596        25.54454         0.47467
C         13.48451        27.68864         0.41628
C         12.26276        26.99968         0.61331
C         13.49843        29.11529         0.49478
C         12.26431        29.86098         0.61277
C         13.49206        32.10204         0.71518
C         12.25243        31.25706         0.48082
C         13.51891        33.40458        -0.13351
C         12.29753        33.87628        -0.61656
C         13.51135        35.77959        -1.88369
C         12.23706        35.06853        -1.50545
C         13.43855        37.18930        -2.34545
C         12.20177        37.82246        -2.43909
C         15.97401         3.48885        -0.52148
C         14.75772         4.23254        -0.81754
C         15.99384         6.31788        -0.42301
C         14.80853         5.70162        -0.79710
C         16.09255         7.78230        -0.40453
C         14.84838         8.58879        -0.61973
C         16.07034        10.67046         0.04310
C         14.86692        10.01326        -0.22372
C         16.07243        12.06575         0.35125
C         14.84953        12.79744         0.26444
C         16.04513        14.87447         0.82539
C         14.85436        14.21647         0.45217
C         16.07399        16.32250         0.88405
C         14.74356        17.04653         0.91107
C         15.98134        19.22261         1.08205
C         14.80346        18.56098         0.80688
C         16.23540        20.62889         1.68377
C         15.00669        21.48006         1.72177
C         16.11617        23.47709         1.03771
C         14.85196        22.71348         1.18365
C         16.06778        24.92671         0.71459
C         14.76880        25.57245         0.43301
C         15.98376        27.69524         0.17448
C         14.73809        26.96533         0.30474
C         15.93973        29.09165         0.18947
C         14.71747        29.81438         0.38760
C         15.96239        31.80436         0.91771
C         14.74573        31.24335         0.59783
C         15.94853        34.01116         0.37075
C         14.73698        34.21528        -0.33904
C         15.92618        36.08217        -1.48211
C         14.75345        35.32886        -1.23426
C         15.89698        37.25607        -2.35490
C         14.65241        37.82871        -2.68682
C         18.43649         3.39232        -0.13923
C         17.18732         4.09571        -0.32810
C         18.39092         6.18327         0.38143
C         17.30348         5.58886        -0.48925
C         18.37997         7.65000         0.71651
C         17.12696         8.47861         0.47473
C         18.51640        10.56196         0.73074
C         17.38757         9.91087        -0.03053
C         18.50028        11.97018         0.90033
C         17.28620        12.73134         0.70196
C         18.47656        14.82049         1.29179
C         17.27758        14.13856         0.96513
C         18.41852        16.28153         1.72300
C         17.23427        17.00982         1.12419
C         18.56412        19.19674         1.11099
C         17.27685        18.47774         0.76308
C         18.60982        20.61458         0.95585
C         17.39452        21.35313         1.05074
C         18.57814        23.44494         0.54838
C         17.37514        22.72473         0.84906
C         18.54376        24.87416         0.32390
C         17.31524        25.60175         0.30699
C         18.50656        27.69318        -0.06012
C         17.26887        26.99342         0.08609
C         18.52054        29.16000        -0.17429
C         17.17618        29.86981        -0.00335
C         18.43628        31.85721         0.73442
C         17.21779        31.19844         0.60479
C         18.45253        34.10652         0.46228
C         17.17130        34.65412         0.05480
C         18.39783        36.38568        -1.25346
C         17.15171        35.70305        -0.89427
C         18.36894        37.33868        -2.37503
C         17.10886        37.81779        -2.80580
C         19.62044         4.04954         0.08276
C         20.83055         6.16639         0.65391
C         19.68249         5.46983         0.33385
C         20.82395         7.57621         0.89707
C         19.67363         8.34102         0.89556
C         20.80759        10.48631         1.52648
C         19.66531         9.80266         1.04156
C         20.82762        11.86922         1.61455
C         19.69053        12.63882         1.28872
C         20.92862        14.77396         1.33888
C         19.71441        14.09842         1.34463
C         21.00455        16.23199         1.43420
C         19.75324        17.03507         1.59859
C         20.98189        19.21308         1.25903
C         19.75521        18.49469         1.27784
C         21.03124        20.56398         0.96726
C         19.83807        21.31503         0.80845
C         21.01022        23.48117         0.33584
C         19.81305        22.74252         0.56245
C         20.98780        24.84211         0.13512
C         19.76871        25.58029         0.13767
C         20.95752        27.78803        -0.01277
C         19.74373        27.01475         0.00547
C         20.96952        29.16237         0.06141
C         19.76180        29.91519         0.09154
C         20.84679        32.19471         0.26725
C         19.69602        31.31118         0.34184
C         20.82148        33.54397         0.02452
C         19.66008        34.40164        -0.14332
C         20.85754        35.98122        -1.80957
C         19.74826        35.67120        -0.91271
C         20.78419        37.03657        -2.68973
C         19.58036        37.73879        -2.95102
O         15.80177         8.34249        -1.74032
O         10.25083        18.32262         0.88825
O          8.95768        32.86409        -1.70618
O         18.44392        33.07856         1.42429
O         12.89983        34.82310        -2.81773
O         12.51549         5.08470        -2.66352
O          9.41130        14.80228        -2.33967
O         12.73094        25.09587        -0.82952
O         19.23853        36.80817        -0.14282
O          4.57905        18.09679        -2.15004
O         16.19689        24.47541         2.14421
O         13.93548        20.78642         2.28460
O          3.08056        30.08980         2.95135
O         20.63300        16.76690         2.75544
O          2.83015         8.46774        -2.30294
O          2.36758        19.19669        -1.11240
O         15.97317        33.10958         1.44040
O          6.48131        22.06768        -0.99171
O         18.05643         6.61569         1.73591
O         10.69392        17.00655        -2.01083
O          4.55633        27.26873         3.35933
O          0.89625        28.79830         3.17454
O          5.65426        36.24245         1.10742
O          3.34862        37.45846         0.53723
O         17.77928        29.72122        -1.32666
O          8.80065        24.68739         3.29706
H          8.00338        24.20962         3.62598
O          1.60068         7.58381         0.97766
H          0.91154         6.99209         1.34562
O         18.11699        16.22905         3.15982
H         18.99193        16.18344         3.61532
O         16.64458        20.32619         3.05081
H         15.82839        20.10475         3.54955
O         16.48308         8.64776         1.76588
H         16.70684         7.85077         2.30160
O         17.79849         5.82204        -1.85289
H         17.08775         5.56720        -2.47904
O         17.33777        18.48136        -0.71845
H         16.46885        18.17647        -1.05823
O          2.80761        16.31569        -2.01472
H          2.93767        17.16838        -2.49334
O          8.80014        28.26631         2.87951
H          8.85309        27.48522         3.47029
O          9.25366        36.29814         0.62662
H          8.59989        36.80722         1.15150
O          5.15267        20.59502         2.04319
H          5.63449        21.22005         2.63852
O          9.91788        22.14002         2.63346
H          9.84340        22.93851         3.20816
O          6.13733        23.04715         3.06428
H          5.36052        23.47778         3.48552
O          6.16051        20.09368        -2.36747
H          5.86609        19.33534        -2.92135
O          9.13282        35.07634        -2.78961
H          9.56311        34.32043        -3.24243
O          9.59897         9.95615         1.04124
H         10.35968         9.46866         1.42427
O         12.76714        19.12985        -1.72003
H         12.22072        18.63531        -2.36927
O          8.42482        28.51048        -0.75547
H          8.63545        29.25017        -1.36565
O         17.86318         9.89394        -1.39629
H         17.16087         9.46664        -1.94833
O         13.76713        22.73622        -0.84882
H         13.21319        23.30195        -1.43660
O          5.00667         5.54154         0.57667
H          5.78087         4.96323         0.74919
O          6.46720        15.17125         0.98433
H          6.60886        14.23721         1.25006
O          5.68371        28.75653        -0.55298
H          6.52830        28.42207        -0.94690
O         13.37677        32.53521         2.10672
H         14.22360        32.98410         2.33547
O         14.31183        16.85488         2.30952
H         15.09055        17.01233         2.88648
H          1.23175         2.68558        -2.06581
H         -0.90179         3.94239        -1.91942
H         -0.93914         6.31102        -1.18855
H         -0.98666         8.18476        -0.43175
H         -0.87539        10.57985        -0.02289
H         -0.62301        12.20054         1.17370
H         -0.52307        14.59181         1.72600
H         -0.13099        16.42278         2.51623
H         -0.28495        18.88870         2.58094
H         -0.99958        20.78151         1.47210
H         -0.99220        23.19300         1.79824
H         -1.01577        25.00273         1.81057
H         -1.04157        27.33043         2.62601
H         -1.25982        29.78266         1.67602
H         -1.05904        31.80290         0.25069
H         -0.89060        33.35816        -0.87561
H         -0.77587        35.64586        -1.78797
H          0.46752        37.66527        -2.28997
H          3.69642         2.69754        -2.09431
H          2.53501        39.00436        -2.25318
H          6.16913         2.65181        -1.89927
H          4.98226        39.10839        -1.84996
H          8.58919         2.62056        -1.58961
H          7.33516        39.02434        -2.03254
H         10.98035         2.56030        -1.17481
H          9.70958        38.89751        -2.47158
H         13.52990         2.47826        -0.91375
H         12.15536        38.86481        -2.78740
H         15.90125         2.39024        -0.48580
H         14.62454        38.80545        -3.19209
H         18.43119         2.29415        -0.21274
H         17.07374        38.63587        -3.54087
H         20.55359         3.47074         0.15826
H         21.79765         5.64201         0.66688
H         21.79931         8.06287         1.04093
H         21.70177         9.92025         1.82132
H         21.74144        12.36367         1.97160
H         21.87259        14.22082         1.24090
H         21.91187        16.70954         1.00724
H         21.92303        18.67874         1.44581
H         22.01086        21.05748         0.90506
H         21.97662        22.95919         0.31817
H         21.94021        25.36062        -0.03709
H         21.92296        27.26529        -0.00779
H         21.93446        29.68250         0.13825
H         21.83840        31.71665         0.25846
H         21.79894        34.02274        -0.14862
H         21.75295        35.34368        -1.79468
H         21.66786        37.28404        -3.29591
H         19.57311        38.50791        -3.73663
