         430
 CSIRO Nanostructure Databank - Neutral Graphene Oxide Data Set
C         27.84807        27.28002        -0.32900
C         27.77750        28.73189        -0.10520
C         26.54169        29.50961        -0.37605
C         27.81054        31.63854        -0.61717
C         26.55028        30.85133        -0.48460
C         27.86344        33.09624        -0.28774
C         26.64962        33.81322        -0.01664
C         27.85973        35.92221         0.21166
C         26.65687        35.18583         0.16641
C         27.90104        37.34332         0.31341
C         26.72105        38.11639         0.47518
C         27.92454        40.24668         0.51412
C         26.73912        39.51211         0.55068
C         27.96090        41.67989         0.67764
C         26.83588        42.38975         1.17365
C         28.07235        44.48150         1.10812
C         26.89994        43.75031         1.40905
C         28.16974        45.87944         1.42447
C         30.32510        27.31638        -0.33210
C         29.04272        26.63665        -0.39827
C         30.35497        28.71555        -0.25999
C         29.08961        29.46146        -0.13372
C         30.38446        31.60357        -0.34911
C         29.10778        30.88972        -0.55547
C         30.36009        33.08103        -0.64791
C         29.07824        33.74734        -0.19958
C         30.36307        35.92022        -0.15470
C         29.15229        35.15783         0.33011
C         30.32723        37.33765        -0.17496
C         29.15761        38.03103         0.15749
C         30.31347        40.23500        -0.27949
C         29.23606        39.50205         0.49321
C         30.31380        41.73273        -0.22614
C         29.14246        42.42319         0.36834
C         30.34358        44.61624        -0.01565
C         29.18620        43.80877         0.54055
C         30.50001        45.97263         0.64652
C         29.34309        46.56268         1.26159
C         32.82658        24.53713        -0.67489
C         31.61918        25.20137        -0.56508
C         32.80884        27.33675        -0.39593
C         31.57598        26.60908        -0.42046
C         32.80677        28.76403        -0.29025
C         31.57369        29.44871        -0.22535
C         32.81602        31.61768         0.23331
C         31.54480        30.90777        -0.16655
C         32.81546        33.10163        -0.05517
C         31.61854        33.79548        -0.22950
C         32.83640        35.94010        -0.24754
C         31.58655        35.22134        -0.26129
C         32.84493        37.34499        -0.39429
C         31.55091        38.05565        -0.71810
C         32.77596        40.24407        -0.50785
C         31.60592        39.53642        -0.41024
C         32.81415        41.69645        -0.38393
C         31.61933        42.42967        -0.23747
C         32.85554        44.53505        -0.16025
C         31.64631        43.83939        -0.07464
C         32.81767        46.04183        -0.30211
C         31.70003        46.65552         0.52005
C         33.02260        48.70491         0.79890
C         31.87198        47.99869         0.99559
C         35.32467        23.12563        -0.06617
C         35.33154        24.45210        -0.79253
C         34.05052        25.23132        -0.61383
C         35.30032        27.37759        -0.50854
C         34.05125        26.63165        -0.49067
C         35.28861        28.77453        -0.47886
C         34.06011        29.50273        -0.32932
C         35.30928        31.63883        -0.15906
C         34.07323        30.90103        -0.19920
C         35.29092        33.07360         0.02888
C         34.05723        33.79530         0.02387
C         35.27170        35.96826        -0.03959
C         34.06082        35.23826        -0.07817
C         35.29056        37.35784        -0.25537
C         34.05702        38.04114        -0.43995
C         35.34309        40.24790        -0.61909
C         34.04451        39.49768        -0.71732
C         35.30893        41.70835        -0.44688
C         34.06824        42.39867        -0.38199
C         35.32312        44.53329        -0.40918
C         34.07713        43.82537        -0.29803
C         35.33592        45.99028        -0.33354
C         34.16583        46.70312        -0.11920
C         35.37320        48.85134         0.04120
C         34.20247        48.11851         0.20927
C         35.46456        50.27256         0.27469
C         37.76753        23.09025        -0.08847
C         36.47671        22.47314         0.18266
C         37.77816        24.52920        -0.26316
C         36.57562        25.24231        -0.45820
C         37.78438        27.38064        -0.28169
C         36.55282        26.65308        -0.47292
C         37.80611        28.80217        -0.30654
C         36.56456        29.53639        -0.74489
C         37.77739        31.67278        -0.15943
C         36.53706        30.97435        -0.29736
C         37.75365        33.10570         0.03264
C         36.52660        33.77494         0.08630
C         37.75930        35.93178        -0.23601
C         36.53597        35.25836         0.38145
C         37.74714        37.41234         0.03415
C         36.55921        38.10110        -0.16668
C         37.79250        40.26251        -0.20258
C         36.57455        39.53059        -0.26569
C         37.78584        41.67970        -0.40257
C         36.53792        42.40179        -0.45504
C         37.79843        44.54190        -0.88122
C         36.52416        43.83010        -0.50755
C         37.80715        46.01298        -0.53316
C         36.61505        46.68159        -0.38388
C         37.85686        48.86730        -0.13015
C         36.57030        48.18069        -0.58596
C         37.85758        50.36881        -0.48855
C         36.59075        50.99402         0.04797
C         40.19614        20.25781         0.11703
C         39.01114        20.94247         0.08650
C         40.23488        23.08068        -0.46252
C         38.95926        22.36728        -0.07776
C         40.24539        24.52934        -0.05798
C         39.01457        25.24271        -0.08910
C         40.19780        27.40415         0.29767
C         38.98100        26.66049        -0.04126
C         40.24642        28.85245         0.08515
C         39.02027        29.53560        -0.16358
C         40.29551        31.73873        -0.24019
C         39.00054        30.96890        -0.17722
C         40.23584        33.05041         0.54433
C         38.99739        33.84354         0.20700
C         40.26523        35.96983         0.27432
C         39.02804        35.21770         0.16300
C         40.26547        37.37535         0.28518
C         38.97682        38.13737         0.50279
C         40.25423        40.26179         0.02047
C         39.02555        39.57663         0.04466
C         40.28753        41.67906        -0.22742
C         39.02753        42.40970        -0.37697
C         40.31819        44.54832        -0.24891
C         39.03251        43.79290        -0.46751
C         40.26827        45.98453        -0.71860
C         39.08567        46.71463        -0.66601
C         40.30116        48.86985        -0.55814
C         39.11400        48.16031        -0.59131
C         40.34114        50.27226        -0.15283
C         39.14845        51.00844         0.00168
C         40.41726        52.97254         0.66487
C         39.20306        52.35333         0.41511
C         42.68436        20.25576         0.25656
C         41.46598        20.95012         0.08577
C         42.72001        23.05767        -0.00707
C         41.49136        22.35136        -0.06502
C         42.70803        24.49449        -0.03390
C         41.48876        25.18765         0.06285
C         42.77160        27.38288         0.28703
C         41.51020        26.63072         0.37912
C         42.72878        28.81692         0.37741
C         41.49214        29.53908         0.21790
C         42.73670        31.66132         0.33487
C         41.53083        30.95539         0.16112
C         42.73583        33.11716         0.33433
C         41.52292        33.82422         0.34715
C         42.73726        35.95977         0.32691
C         41.50596        35.24152         0.31000
C         42.70925        37.37914         0.38042
C         41.49465        38.10224         0.33291
C         42.70596        40.27720         0.13526
C         41.49855        39.55595         0.21199
C         42.74299        41.65982        -0.22388
C         41.50761        42.34723        -0.38696
C         42.80746        44.51040        -0.67288
C         41.49269        43.78629        -0.86438
C         42.82400        45.92783        -0.79061
C         41.54511        46.64017        -0.99677
C         42.83880        48.84300        -0.55662
C         41.56439        48.20307        -0.89492
C         42.84051        50.21436        -0.16654
C         41.59987        50.91277         0.04893
C         42.88875        52.92969         0.63887
C         41.63089        52.27664         0.45803
C         43.89322        20.94121         0.28314
C         45.20598        23.08377         0.28375
C         43.94435        22.34574         0.17497
C         45.22786        24.49078         0.18298
C         43.99481        25.23916        -0.26455
C         45.21372        27.34724         0.37957
C         43.97691        26.68390         0.17289
C         45.17670        28.77355         0.72869
C         43.93993        29.53770         0.50866
C         45.22983        31.67353         0.48752
C         43.97025        30.95232         0.48685
C         45.22369        33.10423         0.37702
C         43.98309        33.82434         0.34489
C         45.22787        35.95736         0.34759
C         43.98073        35.24388         0.34802
C         45.24017        37.37477         0.41320
C         43.97334        38.08856         0.59993
C         45.24527        40.27504         0.16540
C         43.97239        39.61383         0.46897
C         45.24407        41.65169        -0.20504
C         43.99943        42.35550        -0.37551
C         45.26335        44.48988        -0.86456
C         43.99562        43.76978        -0.60971
C         45.29210        45.96994        -0.75751
C         44.03482        46.66609        -0.73986
C         45.29236        48.80161        -0.52827
C         44.04318        48.10546        -0.62727
C         45.30285        50.21304        -0.32153
C         44.07306        50.90572        -0.03185
C         44.06502        52.27135         0.38533
C         47.63081        23.09419         0.54942
C         46.42890        22.40831         0.51531
C         47.67427        24.49935         0.42471
C         46.44777        25.20687         0.30331
C         47.69230        27.37314         0.39723
C         46.44297        26.65600         0.35809
C         47.72294        28.78647         0.42953
C         46.50023        29.53651         0.73323
C         47.70950        31.67615         0.38299
C         46.46396        30.99013         0.51586
C         47.70438        33.10677         0.32017
C         46.45910        33.81206         0.33359
C         47.69293        35.96128         0.30896
C         46.45875        35.24222         0.31446
C         47.68661        37.38669         0.32856
C         46.45055        38.10222         0.37448
C         47.69920        40.23924         0.20542
C         46.44721        39.54462         0.28049
C         47.70662        41.66497        -0.00183
C         46.50425        42.32176        -0.29869
C         47.80214        44.49124        -0.51288
C         46.56022        43.72735        -0.73576
C         47.80735        45.92310        -1.00044
C         46.50377        46.65742        -0.74562
C         47.75556        48.81098        -0.70586
C         46.52633        48.09144        -0.66465
C         47.72068        50.22066        -0.61830
C         46.53721        50.90160        -0.40344
C         50.16675        24.55653         0.27411
C         48.93540        25.22428         0.34997
C         50.15435        27.36529         0.15145
C         48.92555        26.64897         0.29058
C         50.15462        28.79105         0.20336
C         48.94824        29.50571         0.31735
C         50.17939        31.67588         0.26897
C         48.94254        30.95958         0.35091
C         50.17602        33.10774         0.24024
C         48.93595        33.81943         0.26618
C         50.16044        35.97219         0.28694
C         48.93130        35.25043         0.26532
C         50.14462        37.37366         0.37681
C         48.92620        38.10055         0.34151
C         50.17205        40.27482         0.18405
C         48.90784        39.52813         0.28191
C         50.16208        41.74632         0.24733
C         48.95193        42.40804         0.07291
C         50.17315        44.62179         0.28107
C         48.93194        43.85244        -0.09265
C         50.23347        46.01809        -0.28759
C         49.04171        46.69277        -0.59473
C         50.26557        48.78899        -0.66001
C         49.03099        48.10345        -0.70255
C         51.35604        25.25651         0.03484
C         52.56785        27.39848        -0.59751
C         51.37111        26.64512        -0.05343
C         52.65644        28.81820        -0.11105
C         51.45536        29.49812         0.47251
C         52.63707        31.67730         0.06992
C         51.42216        30.98149         0.20880
C         52.64293        33.11387         0.06861
C         51.41481        33.81948         0.18709
C         52.64156        35.94257         0.11327
C         51.42603        35.25347         0.21711
C         52.60787        37.43822        -0.08611
C         51.44842        38.05823         0.70876
C         52.67793        40.28468         0.87101
C         51.45037        39.53988         0.40071
C         52.67417        41.73952         0.45345
C         51.43716        42.44473         0.26469
C         52.68835        44.55103         0.10268
C         51.45793        43.84350         0.13436
C         52.71931        45.98033        -0.05442
C         51.46989        46.71206        -0.26280
C         51.45948        48.10243        -0.51008
C         55.05775        27.37503        -0.52304
C         53.89262        26.68657        -0.51542
C         55.08406        28.81874        -0.46700
C         53.85425        29.52535        -0.22025
C         55.10357        31.65857        -0.23497
C         53.87986        30.96268        -0.08505
C         55.11064        33.11475        -0.19462
C         53.87872        33.82267        -0.03979
C         55.10774        35.98047        -0.13757
C         53.87772        35.25374        -0.02206
C         55.12671        37.44410         0.00456
C         53.91641        38.15435         0.18377
C         55.16009        40.23797         0.52398
C         53.94058        39.53742         0.46836
C         55.13659        41.69725         0.95299
C         53.88369        42.42171         0.48548
C         55.15628        44.52972         0.22676
C         53.91366        43.83080         0.25556
C         55.16097        45.91703         0.06685
C         53.96084        46.62816        -0.06042
C         56.28472        29.53464        -0.55604
C         56.29586        30.92321        -0.45279
C         56.29338        33.85565        -0.34056
C         56.29082        35.25194        -0.30861
C         56.33630        38.16679         0.04648
C         56.35150        39.53862         0.27986
C         56.39930        42.46174         0.65251
C         56.39195        43.77851         0.36427
O         28.50081        31.21678        -1.86913
O         45.85869        29.10454         1.98721
O         34.76198        39.84169        -1.94894
O         51.05540        39.82501        -0.95656
O         40.77199        26.96918         1.59711
O         45.95513        43.96281        -2.07453
O         28.41650        29.20712         1.14828
O         43.95697        38.96024         1.78587
O         41.55414        47.50363        -2.17118
O         29.93703        40.99864        -1.46151
O         51.62768        29.38210         1.95144
H         50.88371        29.87050         2.36577
O         36.64218        35.40566         1.82456
H         35.85731        34.98273         2.23148
O         40.56632        44.59420         1.19251
H         39.79079        45.01387         1.62099
O         50.04340        44.83279         1.74082
H         50.82995        45.34144         2.03264
O         32.84001        31.53990         1.71062
H         32.81894        30.58931         1.95318
O         37.88026        50.56642        -1.92164
H         37.25922        49.91058        -2.32245
O         40.24757        23.08535        -1.95432
H         40.26510        22.14560        -2.23675
O         41.25779        43.75521        -2.29669
H         42.04139        43.35879        -2.73091
O         40.48366        32.11642        -1.64064
H         40.33715        31.32031        -2.19318
O         40.15309        32.69251         1.95137
H         40.04379        33.51733         2.46931
O         32.46263        46.29293        -1.70743
H         31.55908        45.90694        -1.84431
O         51.66747        37.81895         2.11522
H         52.10661        38.61545         2.50750
O         38.83747        38.21801         1.98053
H         39.63740        38.67529         2.31883
O         52.31959        37.63442        -1.49814
H         53.08121        37.29697        -2.01350
O         52.27303        27.50684        -2.05402
H         53.03459        27.96852        -2.46654
O         29.38164        35.00872         1.79911
H         28.60501        34.52863         2.15957
O         35.41024        24.13695        -2.22642
H         36.25770        23.66421        -2.37086
O         37.82411        44.51900        -2.36028
H         37.07090        45.06240        -2.67593
O         30.00147        44.90796        -1.42369
H         29.83666        44.04828        -1.86938
O         31.39833        37.98031        -2.17454
H         32.17600        38.41937        -2.58133
O         52.64692        40.29421         2.33567
H         53.49657        40.71870         2.63411
O         29.73952        39.54410         1.88237
H         29.13226        39.00457         2.43248
O         55.03723        41.64767         2.43304
H         55.05664        42.57429         2.75564
O         47.91533        45.82402        -2.46215
H         47.18777        45.21689        -2.75088
O         44.11484        25.31374        -1.74357
H         44.09889        24.39244        -2.08133
O         37.61733        35.77446        -1.68005
H         38.42293        36.13020        -2.10952
O         36.43015        48.34112        -2.03743
H         35.54137        48.00757        -2.28670
O         30.36578        33.18026        -2.11394
H         29.64866        32.57738        -2.43590
O         36.67429        29.60196        -2.23030
H         36.54892        28.68852        -2.56739
O         37.85074        48.76539         1.32076
H         38.62086        49.27045         1.65847
H         26.91091        26.72196        -0.47322
H         25.58623        28.96281        -0.39531
H         25.59513        31.38197        -0.61291
H         25.68756        33.28618        -0.05161
H         25.69066        35.70536         0.23237
H         25.74744        37.61231         0.53268
H         25.77473        40.03481         0.62401
H         25.91348        41.84777         1.42237
H         26.03475        44.27731         1.83642
H         27.29929        46.37819         1.87447
H         29.03386        25.54951        -0.55657
H         29.39189        47.60436         1.60617
H         32.82241        23.44987        -0.83015
H         30.68983        24.61945        -0.61207
H         33.06604        49.74259         1.15508
H         31.04046        48.49773         1.51159
H         34.36613        22.64081         0.16798
H         34.56910        50.80589         0.62659
H         36.44931        21.47126         0.63491
H         36.54794        52.08544         0.17679
H         40.19909        19.16499         0.23750
H         38.07193        20.38112         0.19382
H         40.44707        54.02344         0.98643
H         38.27725        52.93266         0.53000
H         42.67165        19.16236         0.37104
H         42.89972        53.97823         0.96972
H         44.81713        20.36247         0.41361
H         45.01473        52.80478         0.52468
H         48.55803        22.52181         0.68515
H         46.44546        21.31710         0.63309
H         48.65051        50.80057        -0.68142
H         46.56750        51.99481        -0.30799
H         50.21021        23.46071         0.32833
H         50.30251        49.87984        -0.77724
H         52.27682        24.67631        -0.11265
H         52.39864        48.67068        -0.53446
H         56.01911        26.83982        -0.55442
H         53.91670        25.59019        -0.58802
H         56.11799        46.45771         0.04414
H         54.01606        47.71812        -0.17977
H         57.22760        28.99158        -0.71533
H         57.25638        31.44582        -0.54914
H         57.25652        33.34579        -0.47305
H         57.25262        35.77096        -0.41519
H         57.29638        37.65361        -0.09634
H         57.31989        40.05565         0.30574
H         57.36230        41.94970         0.78923
H         57.34059        44.32003         0.22848
