         324
 CSIRO Nanostructure Databank - Neutral Graphene Oxide Data Set
C          3.38395         4.15945        -3.57889
C          2.89190         5.15865        -4.41655
C          2.15512         6.59887        -2.52298
C          2.16868         6.25166        -3.95388
C          1.98901         8.03194        -2.13492
C          1.26452         8.95249        -2.97868
C          1.24456        10.63906        -1.14321
C          0.93057        10.20116        -2.55466
C          1.34731        12.13244        -0.98154
C          0.16692        12.89634        -1.22996
C          1.33452        15.04479        -0.97083
C          0.10336        14.25912        -1.09384
C          1.31547        16.51327        -0.65554
C          0.09820        17.25232        -0.79211
C          1.20168        19.33610        -0.11309
C          0.05018        18.59914        -0.54453
C          1.15803        20.73398         0.05598
C          0.02545        21.54408        -0.32594
C          1.04784        23.61829         0.56903
C         -0.06882        22.87475        -0.05474
C          1.08553        25.12858         0.67115
C         -0.07081        25.93178         0.24336
C          1.25256        27.97512         0.41065
C          0.02593        27.27751         0.10977
C          1.33797        29.38324         0.14592
C          4.44324         3.64244        -1.52802
C          3.17299         4.19260        -2.09088
C          3.61807         6.18109        -0.43431
C          2.82944         5.61156        -1.58897
C          3.40901         7.65096        -0.11237
C          2.54398         8.51876        -0.94081
C          3.40977        10.56433         0.19947
C          2.44451         9.90592        -0.61874
C          3.55943        12.00402         0.15538
C          2.51305        12.74739        -0.48765
C          3.74152        14.94068        -0.06371
C          2.58112        14.21966        -0.65921
C          3.71851        16.43497        -0.00393
C          2.46614        17.19235        -0.27184
C          3.61448        19.27090         0.47655
C          2.44954        18.60797         0.05908
C          3.60082        20.66967         0.91157
C          2.29432        21.42384         0.67864
C          3.64681        23.63817         0.76272
C          2.37096        22.91137         0.50071
C          3.60725        25.11159         0.98732
C          2.39752        25.81648         0.79424
C          3.61145        27.94873         1.20792
C          2.39310        27.23987         0.79897
C          3.65608        29.48500         0.95653
C          2.49808        30.08639         0.29844
C          6.26998         3.54096         0.08772
C          5.25753         4.26634        -0.56873
C          5.85906         6.30090         0.70167
C          4.94371         5.60498        -0.09641
C          5.48056         7.56304         1.23974
C          4.41491         8.33081         0.72025
C          6.20186        10.85853         1.52692
C          4.28717         9.71566         0.94178
C          6.15860        12.09097         0.90285
C          4.91283        12.67615         0.29659
C          6.28441        14.92966         0.12009
C          5.01147        14.14543        -0.05538
C          6.28404        16.43251         0.06724
C          5.00038        17.20277        -0.03096
C          6.07432        19.22471         1.19615
C          4.94985        18.65064         0.32514
C          6.09702        20.74601         1.17746
C          4.87888        21.44545         1.02149
C          6.08011        23.55979         1.32643
C          4.88069        22.86083         1.07862
C          6.04657        25.02351         1.54168
C          4.82781        25.79796         1.22681
C          6.11464        27.93376         1.31846
C          4.88416        27.21459         1.28370
C          6.12490        29.37033         1.09874
C          4.98718        30.07739         0.82718
C          8.43926         3.30974         1.29482
C          7.21579         4.13981         1.03578
C          8.43362         6.48249         1.22828
C          7.15090         5.66452         1.17216
C          8.53552         7.88440         1.57001
C          7.41080         8.69247         1.87370
C          8.64359        10.73222         1.37783
C          7.40892        10.08741         1.67447
C          8.64197        12.12861         1.10712
C          7.41963        12.81356         0.82897
C          8.69019        14.91059         0.78101
C          7.48195        14.20693         0.59236
C          8.73995        16.39184         0.78169
C          7.51967        17.19543         0.46648
C          8.56883        19.22864         1.36287
C          7.43680        18.59647         0.94545
C          8.53190        20.66406         1.70681
C          7.29255        21.43791         1.43494
C          8.56483        23.58772         1.53967
C          7.31289        22.86178         1.48232
C          8.61547        24.98876         1.42849
C          7.37684        25.78049         1.62754
C          8.58696        27.90466         1.15196
C          7.36783        27.23755         1.35386
C          8.65679        29.31953         0.94224
C          7.41916        30.15009         1.16139
C         10.98156         3.34067         1.06577
C          9.64339         3.71205         0.77917
C         10.92966         6.43999         0.89279
C          9.60338         5.92386         0.71304
C         11.00518         7.82912         1.15410
C          9.79367         8.55675         1.38614
C         11.09431        10.66165         1.24480
C          9.84467         9.97849         1.38383
C         11.09917        12.05686         1.10921
C          9.89322        12.80946         1.04262
C         11.14164        14.97834         1.15525
C          9.90443        14.23127         0.97438
C         11.15895        16.31446         1.44172
C          9.87146        17.02968         1.52917
C         11.14172        19.24249         1.59212
C          9.84402        18.51653         1.68627
C         11.12087        20.64175         1.43444
C          9.85949        21.37589         1.72876
C         11.10507        23.54875         1.10121
C          9.85279        22.86650         1.61960
C         11.00461        24.97171         0.73102
C          9.82778        25.66684         1.11250
C         11.11601        27.83898         0.71031
C          9.84915        27.13919         1.15746
C         11.06593        29.27854         0.37017
C          9.83103        29.96670         0.59430
C         13.37068         3.52631         0.94894
C         12.11411         4.18135         0.86252
C         13.38522         6.30796         0.72380
C         12.11857         5.63543         0.75845
C         13.45888         7.74073         0.88435
C         12.27058         8.49748         1.10164
C         13.57543        10.59483         1.17906
C         12.32473         9.91615         1.19247
C         13.62478        12.01541         1.15703
C         12.37889        12.74417         0.91065
C         13.67170        14.91583         1.31455
C         12.40818        14.25110         0.97983
C         13.67678        16.30798         1.54865
C         12.40111        17.04227         1.92046
C         13.55430        19.21515         1.24888
C         12.36955        18.52190         1.53321
C         13.50174        20.58900         0.86490
C         12.29109        21.32693         1.00105
C         13.27006        23.31031        -0.11249
C         12.25601        22.73339         0.63840
C         13.12489        24.76751        -0.63423
C         12.12588        25.60617         0.15296
C         13.36173        27.71672        -0.26853
C         12.21378        27.02852         0.13804
C         13.42219        29.16286        -0.35079
C         12.21068        29.90609        -0.07805
C         15.80128         3.33296         0.84758
C         14.59998         4.14819         0.69801
C         15.82965         6.32025         0.35589
C         14.60587         5.57977         0.52012
C         15.92935         7.71544         0.67453
C         14.71592         8.42825         0.90060
C         16.04622        10.50398         1.10829
C         14.78946         9.83929         1.08095
C         16.08354        11.94910         1.37571
C         14.83548        12.73327         1.24448
C         16.17998        14.88213         1.44487
C         14.86544        14.14860         1.26134
C         16.04821        16.31134         0.99065
C         14.88658        17.01560         1.28893
C         16.03500        19.19830         0.60056
C         14.85437        18.50167         1.21613
C         15.87820        20.56889         0.06764
C         14.62763        21.22956         0.23412
C         15.46319        22.87390        -1.28925
C         14.42846        22.48573        -0.40748
C         15.45503        24.98282        -1.54212
C         14.45367        25.51121        -0.77675
C         15.83776        27.64364        -0.91272
C         14.60050        26.94091        -0.43595
C         15.71837        29.06649        -1.40536
C         14.58044        29.80964        -0.75993
C         18.33215         3.15412         0.40371
C         16.97364         3.60134         0.18705
C         18.29356         6.24399         0.07352
C         16.99836         5.71291        -0.12606
C         18.39208         7.63334         0.39719
C         17.18650         8.37692         0.66026
C         18.50923        10.48479         0.78174
C         17.25758         9.79354         0.91315
C         18.56235        11.88621         0.70547
C         17.41790        12.68403         1.16510
C         18.44463        14.72412         0.26365
C         17.37022        14.12588         0.87722
C         18.32258        16.12501        -0.23662
C         17.08050        16.89352         0.12074
C         18.23969        19.03291        -0.72840
C         17.05001        18.36760        -0.12232
C         18.35020        20.53962        -0.53717
C         16.97745        21.18044        -0.55718
C         17.92020        23.19036        -1.74281
C         16.78931        22.41895        -1.21891
C         17.92809        24.60292        -1.86830
C         16.81586        25.46349        -1.62534
C         18.16253        27.52946        -1.78176
C         16.96575        26.85976        -1.46367
C         18.20720        28.98279        -1.71893
C         17.06941        29.73041        -1.43919
C         19.41754         3.95880         0.16965
C         20.70444         6.05180         0.09572
C         19.45786         5.40654         0.01874
C         20.80262         7.44101         0.24861
C         19.66968         8.24330         0.42540
C         20.82941        10.41950        -0.13294
C         19.81574         9.71773         0.74117
C         20.78757        11.75370        -0.34392
C         19.68840        12.57476         0.13546
C         20.74348        14.71564        -0.61562
C         19.64121        13.97432        -0.07315
C         20.70293        16.07026        -0.87251
C         19.52828        16.86559        -0.69867
C         20.56943        19.00125        -1.50447
C         19.48336        18.24873        -0.96211
C         20.45800        20.34094        -1.84478
C         19.31190        21.13796        -1.54857
C         20.13839        23.13004        -2.83472
C         19.14165        22.45449        -2.00123
C         20.18970        24.47684        -2.87598
C         19.30799        25.25845        -1.92843
C         20.50184        27.43733        -2.40164
C         19.32024        26.76723        -2.12572
C         20.56568        28.85811        -2.34401
C         19.47326        29.61145        -1.99105
O          6.63646        25.41470         2.82947
O          2.76274         6.58183         0.67645
O          5.01733        10.26443         1.97941
O          5.74828        18.78517         2.49994
O         17.08863        18.67819        -1.55416
O          6.52652        15.65794        -1.14128
O         16.87363         4.53857        -0.87028
O          3.55399        15.60272         1.22595
O          3.39245        28.91808         2.27548
O          2.31401        14.68495        -2.01542
O         10.85488        27.61341         2.13320
O          6.78153         4.79251         2.29499
O          2.65850        20.95847         2.00580
O          9.64422        17.61696         2.85756
O         16.93828        12.32134         2.51616
O         17.17304        16.16817        -1.16818
O          6.21769         8.08991         2.29112
O          0.76897        24.25625         1.84528
O         15.94175        19.08273         2.04347
O          9.20149        20.95927         2.97265
O         12.45009        13.56162        -0.32130
O          5.18848        13.16187        -1.09856
O          5.15887        18.23255        -1.06738
O         15.64885        27.38180         0.51579
O          1.38319         5.75574        -1.53887
O          8.58618        17.02609        -0.53358
O         10.83420        23.42909         2.54493
O         15.16221        23.81994        -2.27430
O          3.18672        23.32002        -0.64065
O          9.51028         4.80484        -0.11277
O         16.41553        14.94960         2.89224
H         16.54749        14.01684         3.19711
O         12.32641        17.00401         3.37852
H         11.42770        17.33691         3.62530
O          2.09305         3.29084        -1.72717
H          1.27944         3.84209        -1.65651
O          0.09430        10.21228        -0.32124
H          0.04073         9.23370        -0.37856
O         18.93092        20.73816         0.78347
H         18.86719        21.68864         1.01208
O         20.35391         9.76608         2.10968
H         20.36303        10.70630         2.38920
O          7.50926        30.77560         2.45842
H          7.52700        30.06889         3.13682
O         15.30900        28.91896        -2.82562
H         15.33051        29.81007        -3.23472
O         12.53752        24.64343        -1.96552
H         13.22168        24.21651        -2.53315
O         19.89190        25.08553        -0.59020
H         19.97945        24.12092        -0.43310
H          3.89133         3.28742        -4.01390
H          3.00761         5.03419        -5.50411
H          1.76605         6.96713        -4.68319
H          0.95743         8.62747        -3.98270
H          0.34542        10.87076        -3.20153
H         -0.75832        12.33493        -1.42473
H         -0.87421        14.75999        -1.11398
H         -0.81835        16.73639        -1.10799
H         -0.91063        19.11892        -0.65553
H         -0.83194        21.05353        -0.80787
H         -1.00148        23.40798        -0.28552
H         -1.03169        25.42526         0.08035
H         -0.84659        27.86822        -0.20500
H          0.45965        29.87185        -0.30129
H          4.67987         2.60372        -1.80474
H          2.58525        31.11224        -0.08836
H          6.48220         2.51864        -0.26036
H          5.06299        31.13561         0.53271
H          8.35330         2.47058         1.99915
H          7.38747        30.98570         0.41513
H         11.16869         2.33590         1.47391
H          9.80839        31.05632         0.44140
H         13.36876         2.44278         1.14251
H         12.20310        30.99011        -0.26678
H         15.75249         2.49147         1.55497
H         14.57827        30.91002        -0.82198
H         18.50386         2.12795         0.76367
H         17.13098        30.82997        -1.42416
H         20.40920         3.49509         0.30236
H         21.62458         5.44973         0.06839
H         21.80210         7.89484         0.30358
H         21.67541         9.83717        -0.52719
H         21.58426        12.22673        -0.93547
H         21.68739        14.18819        -0.81068
H         21.61761        16.55037        -1.24842
H         21.50823        18.48504        -1.75107
H         21.29738        20.80177        -2.38619
H         20.83019        22.52496        -3.43829
H         20.93044        24.99248        -3.50418
H         21.42070        26.87697        -2.62434
H         21.52327        29.35240        -2.56114
H         19.54615        30.70711        -1.93399
