         344
 CSIRO Nanostructure Databank - Neutral Graphene Oxide Data Set
C          1.27090         3.50420         0.14057
C          0.09731         4.14844        -0.14778
C          1.21660         6.32218        -0.34080
C          0.06564         5.55404        -0.37817
C          1.19274         7.77196        -0.59215
C         -0.02463         8.47560        -0.71472
C          1.16358        10.59871        -0.94819
C         -0.02738         9.86155        -0.78557
C          1.09646        12.06615        -0.74016
C          0.26078        12.58696         0.28133
C          1.24724        14.81396         0.06641
C          0.30649        13.92650         0.64285
C          1.37695        16.20876         0.43777
C          0.37608        16.84519         1.22136
C          1.47666        19.00267         0.95350
C          0.41666        18.19859         1.45820
C          1.46497        20.43490         1.09829
C          0.32743        21.11964         1.61241
C          1.43794        23.27339         1.35800
C          0.29643        22.49243         1.69003
C          1.38420        24.71740         1.44774
C          0.19660        25.45288         1.45568
C          1.39622        27.59859         1.48956
C          0.20011        26.85528         1.52472
C          1.39890        29.03676         1.51311
C          3.68818         3.60977         0.57828
C          2.50598         4.23655         0.20858
C          3.66900         6.38572        -0.04799
C          2.47972         5.66594        -0.06457
C          3.66046         7.88639        -0.16125
C          2.39768         8.49857        -0.72797
C          3.66782        10.46544        -1.57933
C          2.38602         9.88033        -1.05982
C          3.80820        11.89762        -1.95543
C          1.92205        12.97748        -1.40112
C          3.17008        15.13989        -1.42788
C          2.08980        14.31969        -0.96942
C          3.51470        16.34878        -0.81833
C          2.48769        16.97184        -0.00810
C          3.64846        19.16529        -0.22209
C          2.55312        18.37539         0.27122
C          3.69092        20.53726         0.02153
C          2.59005        21.19124         0.67428
C          3.83266        23.33440         0.66413
C          2.60744        22.60882         0.89861
C          3.94636        24.71405         1.15804
C          2.64762        25.45494         1.53618
C          3.84824        27.61960         1.21354
C          2.64673        26.91614         1.41713
C          3.82650        29.06391         1.21784
C          2.56936        29.73562         1.41694
C          6.05409         3.79198         1.25865
C          4.91942         4.34060         0.70006
C          6.11491         6.44353         0.19123
C          4.91643         5.74535         0.27558
C          6.15464         7.79880        -0.30584
C          4.95932         8.43899        -0.66471
C          6.29592        10.43004        -1.56981
C          4.95942         9.71578        -1.39186
C          6.20356        11.94663        -1.46374
C          4.97082        12.62571        -1.79817
C          6.05243        14.84395        -1.39534
C          5.02280        14.07719        -1.91304
C          6.01161        16.29220        -1.21417
C          4.80843        16.98732        -0.98652
C          6.08786        19.22314        -0.97579
C          4.79341        18.47451        -0.87826
C          6.13378        20.65246        -0.60110
C          4.80943        21.38134        -0.56999
C          6.17894        23.45151        -0.04852
C          4.93255        22.74196         0.06476
C          6.22102        24.86084         0.20291
C          5.08624        25.52675         0.72387
C          6.23846        27.68133         0.52249
C          5.06561        26.93162         0.87271
C          6.22672        29.13053         0.68763
C          5.00449        29.77984         1.01789
C          8.54578         3.96683         1.79431
C          7.24319         4.67973         1.55706
C          8.57668         6.63323         0.70466
C          7.41541         5.71231         0.43929
C          8.57992         7.92257         0.21453
C          7.40250         8.49090        -0.35851
C          8.62862        10.65041        -0.81614
C          7.31473         9.98085        -0.52195
C          8.62829        11.98777        -1.08228
C          7.33943        12.66576        -1.20678
C          8.61370        14.87742        -1.14394
C          7.29503        14.12767        -1.03545
C          8.51587        16.33934        -1.36891
C          7.30800        16.98743        -1.21089
C          8.60939        19.20491        -0.97581
C          7.34125        18.42108        -0.72052
C          8.59470        20.61519        -0.79494
C          7.33825        21.32545        -0.58298
C          8.58191        23.49884        -0.57012
C          7.36910        22.76984        -0.40021
C          8.57559        24.90900        -0.49345
C          7.40668        25.60777        -0.09614
C          8.54563        27.85570        -0.45922
C          7.38495        27.02898         0.05818
C          8.63360        29.21443         0.19516
C          7.41798        29.84940         0.57550
C         10.98442         4.01040         2.02437
C          9.73566         4.65820         1.77784
C         11.05480         6.70745         1.06587
C          9.72918         6.15872         1.55163
C         11.08099         8.02391         0.52722
C          9.80115         8.81524         0.39411
C         11.10950        10.65669        -0.87035
C          9.86298         9.81232        -0.78564
C         11.10482        11.94125        -1.35497
C          9.86100        12.72558        -1.35391
C         11.04117        14.89576        -1.92586
C          9.85140        14.10074        -1.42132
C         11.06017        16.30616        -1.30429
C          9.78298        17.10877        -1.72106
C         11.05198        19.21542        -1.14237
C          9.80970        18.52574        -1.19483
C         11.04559        20.62382        -0.93111
C          9.81264        21.33974        -0.84591
C         11.05118        23.47566        -0.80921
C          9.82898        22.78028        -0.77828
C         11.08278        24.91772        -0.73200
C          9.79582        25.67293        -0.94198
C         11.04880        27.75228        -0.32662
C          9.85121        27.09902        -0.45272
C         11.08962        29.18592        -0.00867
C          9.84984        29.84839         0.31529
C         13.45390         4.02357         2.12879
C         12.21877         4.67004         1.85926
C         13.53951         6.75858         1.26413
C         12.23311         6.01726         1.33737
C         13.49970         7.89230         0.28454
C         12.30425         8.59738         0.09842
C         13.60317        10.60566        -0.76616
C         12.33329        10.08463        -0.20157
C         13.69627        11.86883        -1.55368
C         12.38207        12.64103        -1.68407
C         13.61276        14.86526        -1.36305
C         12.38781        14.14692        -1.79440
C         13.59393        16.29040        -1.20364
C         12.36119        17.06444        -1.66786
C         13.46967        19.17402        -0.84015
C         12.30458        18.50082        -1.15804
C         13.50119        20.60114        -0.72239
C         12.28453        21.32664        -0.81916
C         13.53625        23.42232        -0.69489
C         12.29954        22.74934        -0.78112
C         13.58064        24.90521        -0.92706
C         12.27866        25.60451        -0.61825
C         13.53866        27.70143        -0.34117
C         12.31211        27.03538        -0.44442
C         13.57610        29.22858        -0.41809
C         12.27763        29.86050        -0.00123
C         15.93505         3.94594         2.08584
C         14.70577         4.60288         1.79039
C         15.98198         6.40483         0.70050
C         14.76004         5.88661         1.17119
C         16.03378         7.73898         0.12494
C         14.75952         8.36534        -0.26175
C         16.09024        10.54047        -0.68227
C         14.81672         9.82255        -0.79247
C         16.05821        11.97932        -0.72646
C         14.86409        12.68933        -1.06022
C         15.99271        14.80974        -0.68761
C         14.80312        14.11473        -1.02633
C         15.94163        16.25083        -0.27226
C         14.69793        16.96820        -0.71514
C         15.97999        19.15846        -0.60089
C         14.67687        18.42737        -0.35203
C         15.99181        20.54971        -0.54430
C         14.73987        21.28871        -0.56525
C         15.99229        23.42550        -0.33275
C         14.74846        22.70487        -0.56302
C         15.95603        24.81348        -0.10326
C         14.78127        25.57367        -0.31708
C         16.02426        27.65911         0.09478
C         14.76552        26.97447        -0.17207
C         16.08773        29.20396         0.00906
C         14.73689        29.70979         0.38480
C         18.41824         3.92203         2.15912
C         17.15646         4.49650         1.70249
C         18.45363         6.16615         0.35510
C         17.18439         5.66733         0.88956
C         18.49856         7.67475        -0.01407
C         17.22359         8.41588        -0.07990
C         18.50252        10.55280        -0.18914
C         17.26573         9.84186        -0.36321
C         18.49739        11.98266        -0.25251
C         17.26286        12.68127        -0.47933
C         18.43502        14.83990        -0.49560
C         17.23144        14.12060        -0.52021
C         18.40102        16.25590        -0.88654
C         17.18656        17.01991        -0.64499
C         18.46609        19.13907        -0.78098
C         17.20323        18.41376        -0.71321
C         18.45260        20.56657        -0.62226
C         17.24886        21.26450        -0.49684
C         18.43675        23.39125        -0.01366
C         17.23592        22.70569        -0.27033
C         18.44881        24.78407         0.27861
C         17.14061        25.48060         0.55150
C         18.49494        27.71884         0.35579
C         17.17748        26.97116         0.31421
C         18.33133        29.04081         1.08332
C         17.18102        29.73708         0.90281
C         19.61193         4.40249         1.76714
C         20.92407         6.34763         0.86110
C         19.75299         5.41667         0.65993
C         20.91405         7.67960         0.57478
C         19.74138         8.41423         0.19341
C         20.88466        10.61644         0.35880
C         19.71667         9.84789         0.13087
C         20.87072        12.00597         0.28063
C         19.70300        12.71214        -0.03322
C         20.94336        14.90755        -0.47158
C         19.69516        14.22867         0.04795
C         20.96792        16.18915        -0.86321
C         19.73128        17.00235        -1.03622
C         20.91550        19.14343        -0.47304
C         19.69362        18.44376        -0.79487
C         20.95718        20.48954        -0.38393
C         19.75771        21.34325        -0.70924
C         20.95040        23.45539         0.05265
C         19.71446        22.59822         0.17171
C         20.90881        24.77938         0.30828
C         19.64721        25.47134         0.49761
C         20.63076        27.43491         1.62711
C         19.63270        26.87008         0.87390
C         20.54528        28.78998         2.09525
C         19.43368        29.54912         1.87106
O         18.47654         6.59647        -1.03526
O         18.99961        16.54925        -2.22270
O          3.56411        24.91662         2.55303
O         14.73744         8.65878        -1.69219
O          7.99517        14.55757         0.17066
O         12.46055        13.29146        -3.01078
O          2.67518        12.51947        -2.49899
O          3.93264        14.71544        -2.53405
O          5.28758        19.02765        -2.18847
O          4.22272         9.60342        -2.67557
O         13.79455        29.56075        -1.83573
H         13.06138        29.16096        -2.34959
O          9.85339         8.96388        -1.97620
H          9.62440         9.52327        -2.74859
O         15.93074        16.19756         1.23238
H         15.17853        15.61997         1.48776
O         11.03232        16.12932         0.12441
H         11.21901        16.99422         0.54788
O         16.44763        29.52864        -1.35967
H         15.60985        29.51424        -1.88779
O          9.75047        17.33459        -3.16117
H          9.74601        16.45145        -3.60579
O         13.74247        25.07119        -2.39365
H         13.11165        24.45582        -2.82527
O          7.30008        18.25776         0.74686
H          7.97651        17.59203         0.99765
O         19.90933        21.80151        -2.08391
H         19.90856        21.01237        -2.66513
O         16.92666        25.31878         2.00849
H         16.03473        25.67275         2.21294
O          7.72974         4.96313        -0.77466
H          7.86368         5.60862        -1.50044
O         12.23080        10.67976         1.17173
H         11.32207        10.46012         1.50616
O         14.08440        11.41505        -2.89615
H         13.83615        12.13448        -3.52197
O          9.54324         6.81467         2.86690
H         10.17681         6.39383         3.48716
O         18.83775        28.02695        -1.02864
H         18.11567        28.60751        -1.38001
O          6.90180         5.43096         2.76531
H          6.88009         4.80031         3.51460
O          6.81123        10.09080        -2.87364
H          6.02995         9.96904        -3.46185
O          8.24267        28.11293        -1.87447
H          8.41779        27.26646        -2.35534
O         14.50956        18.46964         1.11905
H         15.19509        17.85767         1.49146
O          4.44644        21.62302        -1.97261
H          4.57174        20.75919        -2.44057
O          9.64617        25.77835        -2.42442
H         10.48280        26.15979        -2.76894
O         19.67355        14.54513         1.49464
H         18.85293        14.15921         1.86911
O          6.84700        10.48079         0.76834
H          7.59220        10.36144         1.40207
O         10.77769        15.03895        -3.34775
H         11.23140        14.27943        -3.79170
O          9.61153         9.57884         1.63067
H          9.52215         8.90424         2.34812
O         20.09105         4.63804        -0.52999
H         19.80879         5.18682        -1.29900
O         12.46702        17.16693        -3.10397
H         11.58646        17.47197        -3.43852
O          3.61869         8.36468         1.25739
H          4.37555         7.94573         1.72356
O         19.68262        22.11618         1.55234
H         19.52866        22.88999         2.13479
O         13.68246         7.42121         2.60436
H         12.98484         8.11126         2.65090
H          1.28446         2.42183         0.33368
H         -0.84476         3.58446        -0.19668
H         -0.90746         6.01432        -0.59622
H         -0.98520         7.94851        -0.64285
H         -0.98530        10.39879        -0.74650
H         -0.41976        11.90959         0.81606
H         -0.35809        14.27754         1.44344
H         -0.46963        16.25898         1.60488
H         -0.39302        18.65722         2.04012
H         -0.56244        20.55454         1.91858
H         -0.60829        22.98955         2.06574
H         -0.77035        24.93258         1.40462
H         -0.75899        27.39173         1.55889
H          0.43996        29.56517         1.61641
H          3.67768         2.54014         0.83676
H          2.56240        30.83526         1.44302
H          6.02997         2.76289         1.65132
H          4.98707        30.87867         1.07505
H          8.54709         2.88252         1.99101
H          7.43359        30.91629         0.84635
H         10.97861         2.94428         2.29819
H          9.89450        30.88053         0.69556
H         13.43971         3.01509         2.56892
H         12.28342        30.94134         0.20437
H         15.91805         3.00501         2.65555
H         14.55164        29.89889         1.45521
H         18.36479         3.11182         2.90234
H         17.04788        30.72762         1.36424
H         20.54054         3.96160         2.15977
H         21.87703         5.87325         1.14007
H         21.85670         8.23151         0.69999
H         21.83160        10.12108         0.60860
H         21.80028        12.55291         0.49033
H         21.88948        14.34778        -0.42620
H         21.92377        16.63589        -1.17882
H         21.82654        18.55372        -0.29583
H         21.91034        20.98439        -0.15083
H         21.91943        22.96973        -0.13109
H         21.83356        25.37496         0.29866
H         21.48247        26.82302         1.95996
H         21.37473        29.19038         2.69518
H         19.35533        30.56433         2.28789
