         284
 CSIRO Nanostructure Databank - Neutral Graphene Oxide Data Set
C        -11.20782         0.65464         0.11380
C         -9.99650         1.41320        -0.18318
C         -8.99010         0.73756        -1.11545
C         -7.62495         1.51236        -1.14367
C         -6.31901         0.73076        -1.37767
C         -5.03141         1.57427        -1.19921
C         -3.72816         0.85665        -1.33353
C         -2.53028         1.59612        -1.86852
C         -1.27112         0.83573        -2.21006
C          0.07306         1.64869        -2.20308
C          1.37190         0.78504        -2.06079
C          2.61230         1.51582        -1.63733
C          3.71314         0.87200        -0.85557
C          5.00924         1.61246        -0.73229
C          6.23603         0.79218        -0.42026
C          7.41705         1.57139         0.09083
C          8.70449         0.85311         0.49774
C          9.92435         1.46535        -0.25286
C         11.15887         0.69039         0.18023
C         -9.88220         2.66948         0.30894
C         -8.58166         3.42022         0.41541
C         -7.52913         2.88546        -0.55133
C         -6.18412         3.56924        -0.48369
C         -5.13610         3.06118        -1.48792
C         -3.80367         3.83706        -1.37873
C         -2.49048         3.08744        -1.57132
C         -1.19626         3.66266        -1.08132
C          0.00087         2.68718        -0.98814
C          1.31191         3.50230        -0.79499
C          2.57224         3.01452        -1.45016
C          3.85933         3.79533        -1.40088
C          5.16307         3.01742        -1.29436
C          6.43047         3.74062        -0.95943
C          7.51378         3.02643        -0.19149
C          8.83811         3.70461        -0.02390
C          9.96575         2.96406         0.01810
C         -8.69356         4.95722         0.24742
C         -7.35729         5.58560         0.63371
C         -6.12416         4.93730         0.09637
C         -4.93111         5.82052        -0.12309
C         -3.73293         5.24076        -0.83522
C         -2.34220         5.90978        -0.65157
C         -1.27587         4.89132        -0.13531
C          0.05351         5.63399        -0.07290
C          1.31978         4.91566        -0.27821
C          2.62421         5.69002        -0.18587
C          3.83867         5.29361        -1.01798
C          5.08853         5.88704        -0.38242
C          6.39285         5.18737        -0.53997
C          7.72167         5.93850        -0.57336
C          8.77564         5.19253         0.30429
C         -7.23382         6.64504         1.45771
C         -5.87836         7.12443         1.94115
C         -4.79629         6.90402         0.88792
C         -3.41020         7.31272         1.35400
C         -2.38833         7.17024         0.23743
C         -1.08218         7.81473         0.50721
C          0.09736         7.01141         0.07013
C          1.29942         7.74359        -0.00392
C          2.62617         7.17781         0.14656
C          3.86920         8.01335         0.10536
C          5.06381         7.36289        -0.14079
C          6.35206         8.02054         0.02896
C          7.55276         7.37674        -0.15164
C         -5.83503         8.59431         2.32432
C         -4.68078         9.29637         2.32413
C         -3.39791         8.72187         1.92426
C         -2.21177         9.36012         2.09747
C         -0.91203         8.62636         1.81305
C          0.34612         9.49081         1.94673
C          1.38526         9.58467         1.07009
C          2.76386        10.01199         1.23922
C          3.85796         9.36749         0.67209
C          5.15292        10.01432         0.80015
C          6.31905         9.40281         0.47046
C        -11.26401        -0.68471         0.01763
C        -10.16000        -1.53384        -0.56279
C         -8.78190        -0.76911        -0.73150
C         -7.45500        -1.35995        -0.42912
C         -6.22253        -0.43300        -0.32927
C         -4.89150        -1.22519        -0.47725
C         -3.78521        -0.65238        -1.35721
C         -2.56855        -1.45709        -1.74382
C         -1.29581        -0.73240        -2.36980
C          0.04128        -1.47535        -2.06600
C          1.42793        -0.77271        -2.01435
C          2.35842        -1.34764        -0.90026
C          3.58210        -0.57850        -0.43628
C          4.77130        -1.31221         0.13656
C          6.11591        -0.65362        -0.02617
C          7.30971        -1.30302         0.62670
C          8.61230        -0.64663         0.27148
C          9.87553        -1.43214         0.32959
C         11.12620        -0.63089         0.44290
C         -9.86901        -2.72739         0.27508
C         -8.91809        -3.72281        -0.13899
C         -7.38200        -2.62061         0.40306
C         -6.15404        -3.50307         0.12143
C         -4.86203        -2.69081        -0.18526
C         -3.68237        -3.55680        -0.59549
C         -2.49019        -2.92721        -1.31318
C         -1.18162        -3.66536        -1.24514
C          0.06495        -2.93028        -1.66911
C          1.38707        -3.65016        -1.50611
C          2.48472        -2.84194        -0.88658
C          3.80099        -3.52916        -0.59159
C          4.69763        -2.83648         0.44011
C          6.05611        -3.56124         0.65917
C          7.31048        -2.76666         0.91751
C          8.61886        -3.50195         0.95515
C          9.79157        -2.86121         0.73508
C         -8.79157        -5.00380         0.64539
C         -7.83668        -5.92775         0.57927
C         -5.80663        -4.41904         1.29474
C         -4.60524        -5.28425         1.11867
C         -3.50930        -4.83821         0.18068
C         -2.14979        -5.45676         0.41782
C         -0.98692        -4.84865        -0.30389
C          0.31838        -5.67591        -0.36240
C          1.39712        -5.11733        -1.28242
C          2.71522        -5.82701        -1.12362
C          3.93359        -5.00595        -0.80521
C          5.15377        -5.81985        -0.38184
C          6.22426        -5.01823         0.34292
C          7.57133        -5.75032         0.41949
C          8.58115        -4.98220         1.31967
C         -7.10723        -7.03228         0.57812
C         -6.03167        -7.45885         1.61569
C         -4.67107        -6.76301         1.37461
C         -3.45120        -7.59502         0.99429
C         -2.11625        -6.93922         0.77245
C         -0.89136        -7.82375         0.42304
C          0.17168        -7.18592        -0.45485
C          1.31094        -7.93361        -0.62281
C          2.64539        -7.29479        -0.85935
C          3.84483        -7.96788        -0.24178
C          4.79755        -7.03737         0.49660
C          6.04611        -7.74147         0.97931
C          7.27207        -7.15394         0.95176
C         -5.87776        -8.97119         1.57899
C         -4.84457        -9.63862         1.04674
C         -3.73614        -8.91760         0.30989
C         -2.49285        -9.73140         0.02807
C         -1.24825        -9.22127        -0.03374
C         -0.05577       -10.08791        -0.42973
C          1.28031        -9.36841        -0.30984
C          2.40073       -10.03461         0.08154
C          3.72585        -9.37697         0.22154
C          4.73026        -9.83265         1.21594
C          5.83151        -9.09700         1.49679
O          7.14395        -1.75665         1.98821
O         -1.98670         8.37550        -0.48734
O          1.79809        -2.10491         0.20273
O         -3.99188        -4.84847        -1.18497
O          0.21498         2.33150        -3.42803
H         -0.68576         2.53080        -3.77814
O         -9.52128         0.65081        -2.38875
O          6.16305         3.30084        -2.31437
O         -6.49191        -7.12945         2.92276
H         -6.10479        -6.25974         3.18094
O         -0.18841        -8.04788         1.68045
O         -2.18537         1.34477        -3.24821
O          6.46712        -0.25728        -1.39768
O         -4.44656        -1.72457         0.82857
O          4.00230        -3.00047         1.68363
H          3.42683        -2.20854         1.81744
O         -5.19686         7.21874        -0.47075
O          0.06022        -2.53485        -3.06065
O         -2.07154        -3.84203        -2.37056
O         -5.67260         3.73735         0.87154
O          5.83966        -4.59691         1.68360
H          0.26576        -7.21172         1.93012
O          4.36321        -4.03084        -1.82787
O         -8.14062         3.14646         1.76641
H         -7.17677         3.36590         1.83185
O         -3.00815         6.36566         2.35973
O          2.79193         6.11727         1.17162
O          9.16930        -1.16661        -0.96717
O         -5.54270         6.33451         3.10134
H         -4.54195         6.25365         3.12166
O         -8.01080        -1.48269        -1.74881
O          2.40765         1.18122        -3.01858
O         -1.60957         3.84291        -2.45067
O          9.73505         1.33095        -1.67342
H          9.65925         0.36471        -1.87182
O          4.39804        -9.01465        -1.07118
O         -3.70654        -1.27038        -2.65803
O          1.16052         9.07872        -0.26618
O         -6.35935        -4.38972         2.39094
O          3.96482        -6.55254         1.63684
O          6.98651         2.53859         1.10465
O         -7.54601        -2.24847         1.71201
H         -7.25416        -2.96887         2.33163
O         -1.63820         4.38146         1.14933
H         -2.10849         5.09821         1.69562
O          3.09353         3.66060        -2.64251
O          2.92513        -6.79976        -2.20897
O         -4.25211        -5.83416         2.41060
O         -2.51928        -7.45011         2.08631
O         -7.87726         2.70313        -1.95295
O         -6.36495        -4.35978        -1.00020
H         -7.07906        -4.01146        -1.58970
O          4.68427        -6.75920         2.87698
H          5.08941        -5.86679         3.02966
O         -4.19850         1.33005        -0.03307
O          5.69341         5.20371         0.75955
O         -6.28802         0.20503        -2.70136
H         -7.15891         0.36479        -3.12812
O         -6.28209         0.16776         0.96204
H         -5.58301        -0.22111         1.53359
O         -1.27845        -4.50163         1.09992
O          1.39030        -4.59221        -2.63445
O          1.48885         3.73894         0.62330
O          4.02337         1.68277         0.33014
O         -1.42861        -0.91217        -3.78218
H         -2.34339        -0.65294        -4.03445
O         -3.94098         5.00114        -2.25806
O          2.14074        -1.19493        -3.18357
H          1.57418        -1.05926        -3.97295
O          3.82969        -0.62590         1.00149
O         -5.59160         3.19426        -2.83189
H         -5.35034         4.09513        -3.14782
O         -0.22140       -10.53770        -1.78483
H         -0.03757        -9.78871        -2.38856
O          5.71302        -6.33373        -1.60888
H          4.96960        -6.66848        -2.16751
O          0.98558        -5.49626         0.93063
H          0.35327        -5.03739         1.53983
O        -10.49540        -1.82813        -1.93005
H        -10.30863        -0.96375        -2.41577
O          8.23580         5.89978        -1.92130
H          7.63175         6.39477        -2.51257
O         -0.16951         1.84970         0.16262
H         -0.05690         2.41394         0.96451
O          8.26508        -5.13374         2.70153
H          7.36568        -4.75715         2.84447
O          8.90792         1.02735         1.90843
H          8.34971         1.78695         2.19948
O         -8.84332        -3.92984        -1.50239
H         -9.32243        -3.18537        -1.96584
O          8.43731         5.34623         1.68069
H          7.53133         4.99262         1.82380
O          8.20439        -5.83462        -0.86339
H          7.55333        -6.21953        -1.49762
O         -4.27421        -8.51029        -0.98792
H         -4.41328        -9.31549        -1.52955
O          3.71097         6.04954        -2.24905
H          3.33629         5.44689        -2.93782
O         -9.03954         5.28303        -1.10023
H         -8.79433         4.54363        -1.69824
O         -0.72338         7.64489         2.86330
H         -1.56872         7.09501         2.91084
O         -1.85011         6.32401        -1.92528
H         -2.47851         6.97542        -2.30139
H         12.04523        -1.15746         0.74291
H         12.11450         1.23253         0.25598
H         10.93916         3.45096         0.18948
H          9.77703         5.66226         0.14513
H          8.47953         7.94940         0.00989
H          7.27436         9.93513         0.58335
H          5.16794        11.04552         1.18224
H          2.95919        10.91130         1.84480
H          0.50888         9.88136         2.96377
H         -2.17600        10.36078         2.55570
H         -4.67841        10.34458         2.66384
H         -6.76377         9.07257         2.67235
H         -8.13477         7.11945         1.87912
H         -9.49175         5.35951         0.92331
H        -10.71795         3.07685         0.90237
H        -12.06520         1.20642         0.53024
H        -12.18755        -1.21625         0.28925
H         -9.97960        -2.58245         1.36281
H         -9.64199        -5.21963         1.32006
H         -7.31829        -7.76764        -0.22067
H         -6.68036        -9.52964         2.08423
H         -4.81781       -10.73855         1.09529
H         -2.65156       -10.78137        -0.26974
H         -0.03935       -11.00634         0.21068
H          2.32419       -11.09786         0.36019
H          4.60330       -10.83053         1.66133
H          6.60509        -9.51274         2.15998
H          8.13922        -7.73556         1.30396
H          9.59551        -5.42211         1.15824
H         10.73532        -3.42452         0.80983
