         252
 CSIRO Nanostructure Databank - Neutral Graphene Oxide Data Set
C         30.35692        31.80063         1.12070
C         30.31604        33.04547         0.98432
C         30.28829        36.19682         0.27343
C         30.40195        37.37205        -0.12944
C         30.31356        40.33772        -1.04261
C         30.31085        41.57179        -0.92205
C         32.77112        28.89171         1.23598
C         31.69173        29.53414         1.17010
C         32.72098        31.64620         0.95250
C         31.46563        30.92069         0.98858
C         32.73110        33.14621         0.89971
C         31.45014        33.96407         1.07215
C         32.73644        36.07427         0.16568
C         31.45073        35.42226         0.72343
C         32.68431        37.40679        -0.49885
C         31.50936        38.10280        -0.67113
C         32.70765        40.31461        -0.71176
C         31.52039        39.47367        -1.29284
C         32.66302        41.65745        -0.46758
C         31.39750        42.45921        -0.63394
C         32.71723        44.30105        -0.34816
C         31.50859        43.82308        -0.49763
C         35.73038        27.67319         2.13663
C         35.29535        28.96945         1.91810
C         33.94604        29.62192         1.87086
C         35.20405        31.75390         0.97255
C         33.96265        31.02217         1.19042
C         35.19830        33.07188         0.50741
C         33.88173        33.67962         0.05887
C         35.23741        35.92336        -0.39317
C         33.92580        35.20947        -0.17453
C         35.24959        37.40911        -0.40715
C         33.97689        38.10738        -0.87522
C         35.24813        40.25839        -0.57185
C         33.94560        39.52835        -0.30388
C         35.16642        41.75341        -0.79870
C         33.96722        42.34152        -0.01966
C         35.26470        44.66689        -0.24046
C         33.97803        43.89167        -0.19236
C         35.41245        45.72240         0.85548
C         38.17142        27.27639         1.73466
C         36.83443        27.04256         1.99068
C         38.38197        28.71641         1.80245
C         36.40016        29.89737         1.97970
C         37.83982        31.76225         1.18568
C         36.46423        31.10821         1.33181
C         37.76751        33.01765         0.32030
C         36.46045        33.73081         0.08993
C         37.69465        35.90117        -0.12516
C         36.50714        35.19955        -0.14864
C         37.71743        37.34924        -0.62698
C         36.42351        38.10482        -0.41331
C         37.71139        40.30414        -0.63610
C         36.43690        39.57489        -0.53612
C         37.70238        41.68994        -0.55241
C         36.46307        42.44959        -0.43469
C         37.81377        44.32619         0.39830
C         36.50830        43.76975        -0.08635
C         37.86187        45.62215         1.18908
C         36.51158        46.16684         1.20130
C         40.41573        24.55217         0.24819
C         39.39473        25.07177         0.82258
C         40.47511        27.34226         0.86029
C         39.16118        26.57160         0.81316
C         40.43362        28.73079         0.55228
C         39.23119        29.43383         0.98374
C         40.24744        31.61426         0.17360
C         39.01208        30.86920         0.63445
C         40.26605        33.10737         0.20810
C         39.01244        33.82331         0.26375
C         40.21207        35.94899         0.06283
C         38.94471        35.19689         0.08065
C         40.20084        37.44241        -0.09667
C         38.93961        38.17289        -0.30576
C         40.21125        40.25610        -0.74266
C         38.97741        39.56051        -0.60849
C         40.23419        41.69135        -1.01468
C         38.93229        42.47820        -0.82419
C         40.24888        44.54482        -0.16371
C         39.05894        43.85446        -0.27261
C         40.43520        45.62381         0.90861
C         39.09818        46.40254         1.14911
C         40.43717        48.33375         1.92950
C         39.39755        47.61312         1.66211
C         42.71923        24.61773        -0.14985
C         41.58507        23.89579         0.00717
C         42.90259        27.39876         0.62797
C         41.73017        26.79579         1.16418
C         42.85425        28.73454         0.17290
C         41.61568        29.43401         0.26013
C         42.65060        31.53454        -0.66668
C         41.62040        30.93691         0.28876
C         42.62167        33.03232        -0.65185
C         41.44839        33.77191        -0.09582
C         42.53243        35.87999        -0.80088
C         41.44894        35.19789        -0.25891
C         42.36098        37.25150        -1.19418
C         41.39428        38.07373        -0.69191
C         42.81962        40.27602        -0.79636
C         41.51610        39.55132        -0.42472
C         42.75849        41.74151        -0.56022
C         41.51657        42.47929        -0.97742
C         42.82906        44.78761        -0.58030
C         41.50710        43.99054        -0.71621
C         42.80459        46.14407         0.06796
C         41.67823        46.52791         0.79409
C         42.99663        48.27667         1.79396
C         41.67629        47.78024         1.61262
C         43.86433        25.12278         0.16833
C         45.36935        27.25558        -0.00928
C         44.11044        26.54357         0.45341
C         45.25351        28.70024        -0.45416
C         44.06317        29.37891        -0.33198
C         45.20338        31.55526        -1.01821
C         43.91218        30.71086        -1.05554
C         45.18118        33.04202        -0.93695
C         43.91481        33.78329        -0.65235
C         45.22156        36.01556        -0.98420
C         43.90194        35.28365        -0.73021
C         45.28346        37.49732        -0.77814
C         44.29629        38.30751        -1.23010
C         45.29677        40.40607        -0.48534
C         44.08309        39.70428        -0.86568
C         45.30658        41.74825        -0.20207
C         44.02439        42.50203        -0.33391
C         45.61476        44.30389        -0.66803
C         44.12645        43.97847        -0.63961
C         45.18602        46.85648        -0.71174
C         44.07120        46.90790         0.15492
C         44.02385        47.79954         1.26231
C         47.55652        27.27188        -1.00736
C         46.53240        26.65304        -0.69050
C         47.75355        28.66739        -1.38903
C         46.43558        29.39344        -1.08435
C         47.69415        31.53978        -0.70256
C         46.51560        30.86079        -0.83900
C         47.69270        32.99231        -0.34797
C         46.40720        33.74946        -0.44145
C         47.72848        35.89728        -0.22282
C         46.47030        35.22711        -0.69829
C         47.71296        37.36696         0.02119
C         46.39316        38.16925         0.00234
C         47.70014        40.21943         0.26896
C         46.58554        39.60425        -0.54439
C         47.54253        41.51727         0.83455
C         46.47091        42.38622         0.40125
C         47.64187        44.65567         0.75190
C         46.52840        43.79569         0.41296
C         47.43663        45.99971         0.23570
C         46.50817        46.72288        -0.16387
C         50.27569        28.93835        -1.03936
C         49.00622        29.40907        -1.24239
C         50.25139        31.52648        -0.44086
C         49.02968        30.96147        -1.17307
C         50.11167        32.89656         0.22454
C         48.97524        33.74542        -0.28399
C         50.23262        35.85608         0.07175
C         49.02170        35.13308        -0.25394
C         50.28138        37.35276         0.08185
C         49.00365        38.14522        -0.23642
C         49.90642        39.98996         1.32207
C         48.87274        39.48281         0.48625
C         49.62791        41.15578         2.08443
C         48.49498        41.91437         1.79072
C         50.11202        44.26043         1.36784
C         48.70868        44.16924         1.52272
C         51.42788        29.44120        -0.78614
C         52.51609        31.52365         0.35063
C         51.43736        30.78142        -0.26853
C         52.44570        32.76272         0.55275
C         51.40846        33.69823         0.38289
C         52.44462        35.96261         0.89098
C         51.39194        35.09268         0.44053
C         52.45263        37.15991         1.22754
C         51.48420        38.12835         0.67716
C         52.18113        40.54599         1.25426
C         51.27476        39.50810         1.19270
C         52.51418        41.76181         1.31869
C         52.49325        43.12995         1.08266
C         51.27052        43.82633         1.29967
O         37.12596        32.90858        -0.97525
O         42.19042        32.26939        -1.83226
O         32.36877        33.71650         2.17754
O         39.42073        42.14860        -2.15170
O         34.41136        35.44635        -1.54129
O         45.20463        26.91501         1.36796
O         51.37447        37.94134        -0.75298
O         41.50071        43.42537        -2.06230
O         44.02499        34.57113         0.56593
O         46.84588        33.28981         0.85291
O         46.83807        29.04749        -2.45784
O         43.14056        42.19525         0.80159
O         48.34277        43.15174         2.45896
O         37.55042        29.45322         2.66307
O         39.30851        31.06202        -0.78595
O         43.53941        44.56776        -1.82871
O         43.32068        37.76056        -2.06817
O         40.38772        36.84324         1.25880
O         45.28054        32.41945        -2.23676
O         46.12014        44.55980        -1.75882
O         32.36533        36.14587         1.57463
O         46.06296        35.52639        -2.07620
O         47.67789        36.46581         1.15811
O         37.94844        44.33455         1.89057
O         49.12742        31.45106        -2.54390
H         48.38261        31.06993        -3.05916
O         33.86565        39.35018         1.13365
H         33.99581        40.23744         1.55188
O         49.71384        32.55709         1.60782
H         50.47213        32.09332         2.02612
O         45.00260        46.76928        -2.02891
H         45.77909        46.35958        -2.47201
O         43.72302        30.30398        -2.42311
H         43.55180        31.11922        -2.94737
O         53.57629        43.82219         0.66482
H         54.33029        43.21668         0.52202
O         37.79831        37.19564        -2.09608
H         36.97313        36.75819        -2.39947
O         41.82955        25.75699         2.02623
H         42.76880        25.52986         2.18276
O         33.60971        29.86658         3.24838
H         33.58473        29.00869         3.72179
O         34.87126        41.97648        -2.19792
H         35.61298        41.62041        -2.73110
O         50.45287        41.57563         3.07970
H         50.05490        42.38482         3.46900
O         38.63251        26.79001        -0.51897
H         37.81706        26.25492        -0.61901
O         34.09310        38.18243        -2.30847
H         34.03602        37.26374        -2.65415
O         35.37273        45.30741        -1.50393
H         34.52264        45.74673        -1.71378
O         40.65962        44.86403         2.12221
H         39.80636        44.42096         2.35880
O         31.71286        39.32507        -2.68956
H         31.79698        40.21245        -3.09537
O         49.04164        38.36489        -1.66092
H         49.98340        38.52345        -1.90260
O         45.96741        38.33390         1.36835
H         46.20581        37.50912         1.85281
O         33.59596        33.08204        -1.23612
H         34.22311        33.47690        -1.88466
O         41.60788        39.62330         1.05261
H         41.33915        38.75937         1.44047
O         34.19147        42.07766         1.37843
H         33.49869        42.53411         1.90143
O         46.88019        39.51586        -1.95230
H         47.27959        40.35858        -2.24889
O         38.26414        32.20513         2.49608
H         38.13764        31.45436         3.11867
O         42.14338        31.31971         1.60181
H         41.62492        30.86140         2.29614
