         424
 CSIRO Nanostructure Databank - Neutral Graphene Oxide Data Set
C          2.03034         2.14731         3.35873
C          1.83384         3.45013         2.98675
C          3.20197         1.43087         3.00131
C          2.82147         4.17515         2.11541
C          1.80625         6.40952         2.80366
C          1.84814         7.79455         2.91530
C          2.92217         5.68227         2.36162
C          3.02392         8.51889         2.62804
C          2.00735        10.71612         3.21065
C          1.98961        12.15733         3.10636
C          3.04047         9.97877         2.70578
C          2.85774        12.82649         2.29754
C          1.70700        15.09498         2.63849
C          1.71750        16.44892         2.50884
C          2.68002        14.25177         1.93529
C          2.80973        17.14985         1.88513
C          2.86550        18.57716         1.96081
C          4.27914         2.10977         2.39213
C          4.15838         3.47981         2.12200
C          5.45731         1.39461         1.89114
C          5.30223         4.18792         1.54239
C          4.09228         6.40231         2.02100
C          4.16049         7.80079         2.18614
C          5.26617         5.68174         1.47491
C          5.47795         8.52914         2.02137
C          4.26817        10.76538         2.28587
C          3.88469        12.02729         1.51128
C          5.32994         9.96074         1.58033
C          5.13875        12.79085         1.09854
C          3.83917        14.96935         1.22261
C          3.90779        16.43639         1.35992
C          5.09478        14.23680         0.93874
C          5.10338        17.12012         1.01360
C          3.99798        19.25756         1.59836
C          5.16313        18.55277         1.14787
C          6.54983         2.04689         1.42466
C          6.65830         3.52851         1.68755
C          7.60596         1.36723         0.59322
C          7.76838         4.23396         0.94564
C          6.53757         6.39813         1.23839
C          6.53501         7.78277         1.24910
C          7.70301         5.64644         0.83081
C          7.63140         8.52788         0.69091
C          6.34757        10.62878         0.93405
C          6.25631        12.07014         0.73495
C          7.55879         9.92688         0.52199
C          7.30832        12.75329        -0.11468
C          6.22117        14.95158         0.56899
C          6.25485        16.39594         0.56913
C          7.51881        14.20433         0.35803
C          7.43863        17.09769         0.21568
C          6.34893        19.23212         0.86045
C          7.49810        18.54281         0.37010
C          8.96703         2.04980         0.61315
C          8.97622         3.51887         0.68040
C         10.01955         1.22172         0.27235
C         10.11369         4.28841         0.30670
C          8.83203         6.39040         0.36526
C          8.79334         7.80596         0.26027
C         10.02692         5.69191         0.02695
C          9.94697         8.51853        -0.17013
C          8.69677        10.64892         0.01518
C          8.64786        12.04395        -0.17554
C          9.92317         9.94053        -0.25772
C          9.82221        12.77548        -0.53269
C          8.49637        14.93936        -0.55737
C          8.61159        16.40625        -0.22451
C          9.80871        14.19742        -0.62240
C          9.78300        17.08265        -0.54389
C          8.65199        19.24101         0.03021
C          9.75465        18.57813        -0.73159
C         11.40766         1.62141         0.24370
C         11.43601         3.74695         0.29927
C         12.46395         1.22981        -0.54302
C         12.47685         4.24475        -0.45794
C         11.15577         6.38622        -0.46347
C         11.14095         7.80046        -0.50447
C         12.29418         5.60473        -1.08203
C         12.33274         8.53727        -0.77858
C         11.09659        10.65139        -0.63319
C         11.06773        12.07699        -0.74284
C         12.32633         9.93823        -0.84785
C         12.24805        12.79638        -1.07390
C         10.99609        14.92057        -0.83693
C         10.99776        16.36443        -0.81061
C         12.22019        14.22255        -1.10221
C         12.22592        17.05901        -0.87778
C         11.09638        19.22872        -0.59528
C         12.25832        18.51906        -0.74635
C         13.67990         2.03026        -0.68240
C         13.67378         3.48351        -0.70141
C         14.87157         1.37421        -1.00136
C         14.83246         4.19055        -1.13052
C         13.60530         6.33873        -1.07640
C         13.59739         7.79311        -0.87421
C         14.80114         5.64577        -1.23052
C         14.84531         8.54684        -1.18112
C         13.53801        10.67676        -1.16169
C         13.49769        12.09321        -1.29249
C         14.75855        10.00388        -1.39251
C         14.68681        12.79113        -1.63036
C         13.41620        14.96429        -1.30515
C         13.43554        16.34566        -1.08528
C         14.60875        14.27402        -1.91511
C         14.74955        17.04353        -0.80973
C         13.52793        19.20566        -0.85748
C         14.72239        18.54025        -1.02668
C         16.08358         2.07422        -1.25298
C         16.05993         3.51301        -1.35234
C         17.30357         1.39292        -1.39496
C         17.25863         4.22907        -1.63765
C         16.02348         6.35237        -1.52923
C         15.92887         7.80616        -1.91967
C         17.22471         5.67704        -1.74091
C         17.22739         8.56538        -1.87459
C         15.94009        10.68883        -1.73941
C         15.89049        12.09794        -1.87134
C         17.20037         9.95491        -1.89698
C         17.14632        12.81874        -2.19798
C         15.90527        15.01900        -1.69881
C         15.93594        16.34715        -1.41974
C         17.15036        14.31646        -2.10705
C         17.13526        17.15350        -1.76884
C         15.96364        19.24182        -1.15289
C         17.16470        18.59629        -1.43247
C         18.51136         2.09370        -1.62066
C         18.48740         3.53060        -1.77681
C         19.74015         1.40858        -1.70208
C         19.70331         4.22749        -2.03439
C         18.42863         6.41750        -2.03734
C         18.44675         7.81746        -2.01647
C         19.65824         5.66961        -2.48936
C         19.68599         8.55753        -2.13881
C         18.44003        10.69189        -2.05532
C         18.43688        12.09356        -2.11756
C         19.66797         9.95277        -2.15665
C         19.68384        12.84336        -2.12178
C         18.43388        14.99700        -1.66777
C         18.41461        16.45492        -2.09246
C         19.69595        14.25532        -1.99920
C         19.72293        17.23225        -2.19844
C         18.42678        19.24036        -1.32559
C         19.65427        18.58786        -1.51302
C         20.95130         2.10571        -1.88441
C         20.92369         3.54184        -2.04667
C         22.18743         1.42472        -1.92594
C         22.17553         4.25056        -2.21020
C         20.94968         6.41502        -2.23392
C         20.93990         7.83033        -2.16878
C         22.16148         5.70354        -2.22073
C         22.16571         8.55075        -2.00808
C         20.93853        10.68811        -2.50720
C         20.91977        12.14790        -2.14891
C         22.17002         9.96978        -2.02092
C         22.14214        12.84145        -1.97022
C         20.91971        14.97493        -1.93983
C         20.93747        16.41730        -1.82220
C         22.14023        14.25354        -1.91113
C         22.13164        17.10665        -1.55463
C         20.87239        19.22437        -1.22014
C         22.11017        18.54364        -1.29424
C         23.40406         2.12124        -2.08999
C         23.37933         3.55446        -2.23659
C         24.63831         1.43510        -2.03948
C         24.66580         4.28375        -2.53048
C         23.40724         6.40773        -2.06736
C         23.39906         7.82238        -1.89159
C         24.63899         5.71885        -2.06792
C         24.61367         8.50211        -1.62514
C         23.34369        10.69700        -1.72772
C         23.38076        12.10624        -1.76733
C         24.53789         9.93682        -1.30528
C         24.61343        12.82766        -1.51645
C         23.43515        15.00668        -2.03579
C         23.37383        16.41637        -1.50986
C         24.63884        14.24116        -1.56537
C         24.58150        17.10106        -1.25853
C         23.32525        19.21876        -1.08428
C         24.56645        18.54540        -1.09522
C         25.87939         2.12851        -1.98551
C         25.90699         3.54882        -2.09784
C         27.08469         1.42818        -1.73469
C         27.11775         4.26442        -1.95073
C         25.85819         6.40833        -1.85186
C         25.84894         7.82602        -1.60195
C         27.09375         5.69366        -1.90489
C         27.09420         8.54972        -1.39394
C         25.83203        10.68202        -1.07874
C         25.83011        12.13863        -1.25938
C         27.10228         9.94985        -1.19418
C         27.05307        12.83303        -1.10404
C         25.82522        14.94844        -1.26217
C         25.80750        16.39478        -1.17259
C         27.03245        14.24261        -1.04311
C         27.04899        17.10757        -1.04081
C         25.78641        19.23851        -0.98014
C         27.02940        18.57039        -0.99313
C         28.30048         2.11194        -1.58106
C         28.34537         3.54090        -1.70272
C         29.50602         1.40819        -1.27460
C         29.57272         4.20821        -1.48855
C         28.34446         6.45061        -1.87260
C         28.33870         7.86514        -1.48581
C         29.66343         5.66179        -1.67994
C         29.56460         8.53640        -1.23831
C         28.32198        10.68019        -1.11164
C         28.30793        12.10433        -0.99436
C         29.56589         9.96676        -1.08899
C         29.53429        12.82215        -0.88471
C         28.24983        14.97408        -0.55125
C         28.24654        16.42464        -0.93174
C         29.54828        14.24808        -0.80963
C         29.54281        17.14601        -1.15116
C         28.23450        19.26455        -0.79046
C         29.48067        18.59596        -0.72589
C         30.69001         2.07080        -1.02889
C         30.74195         3.50170        -1.10100
C         31.92987         1.25742        -0.74884
C         31.93981         4.22037        -0.75723
C         30.80602         6.38183        -1.10923
C         30.78310         7.80068        -1.03870
C         31.92860         5.62868        -0.69457
C         31.99723         8.51708        -0.72117
C         30.78601        10.67480        -0.93156
C         30.77971        12.10844        -0.86053
C         32.01379         9.94313        -0.77153
C         31.99849        12.83077        -0.77029
C         30.75624        14.95594        -0.71346
C         30.75454        16.39995        -0.64571
C         32.00995        14.24549        -0.65824
C         31.90486        17.09700        -0.31723
C         30.65316        19.25370        -0.38726
C         31.88847        18.55119        -0.19680
C         33.08870         2.05518        -0.20507
C         33.11951         3.48085        -0.31976
C         34.16976         1.37425         0.32760
C         34.29575         4.16592         0.02778
C         33.08822         6.34997        -0.04551
C         33.18033         7.81922        -0.39408
C         34.40525         5.63394        -0.31478
C         34.40388         8.50207        -0.19366
C         33.25175        10.62305        -0.62908
C         33.26577        12.08824        -0.82686
C         34.44271         9.91966        -0.37447
C         34.55076        12.85611        -0.48544
C         33.21664        14.96503        -0.36365
C         33.15402        16.39351        -0.10213
C         34.44074        14.28335        -0.16198
C         34.28168        17.09139         0.30402
C         33.03361        19.22750         0.19262
C         34.23480        18.52032         0.54217
C         35.33440         2.06119         0.77011
C         35.40215         3.48001         0.58406
C         36.42004         1.37627         1.36478
C         36.55277         4.20434         1.03531
C         35.52910         6.35101         0.39455
C         35.56418         7.77512         0.30450
C         36.56435         5.62964         0.98298
C         36.72986         8.46844         0.73684
C         35.72546        10.64950        -0.21542
C         35.71624        12.10866        -0.01075
C         36.90625         9.89012         0.39767
C         36.79379        12.78229         0.56123
C         35.59818        14.93876         0.32804
C         35.63878        16.44189         0.26739
C         36.75648        14.22662         0.68641
C         36.64267        17.04115         1.20811
C         35.29825        19.16276         1.14696
C         36.36574        18.37523         1.84512
C         37.56610         2.06123         1.78625
C         37.64878         3.49093         1.62496
C         38.67458         1.37169         2.38179
C         38.81422         4.17018         2.04046
C         37.62488         6.35402         1.77987
C         37.77504         7.81077         1.40601
C         38.96453         5.63645         1.70308
C         38.92318         8.49870         1.86960
C         37.94814        10.64948         1.10885
C         37.93678        12.06099         1.08739
C         38.97314         9.93738         1.78752
C         39.02576        12.78498         1.66269
C         37.91324        14.92808         1.19434
C         37.81247        16.36400         1.46793
C         39.03832        14.22417         1.61332
C         38.93296        17.05854         2.07751
C         37.61421        19.14085         2.13488
C         38.82630        18.47868         2.32451
C         39.78973         2.05134         2.79554
C         39.88631         3.47326         2.63063
C         41.02068         4.20203         3.10290
C         40.02837         6.36160         2.50262
C         40.00266         7.77759         2.50417
C         41.06667         5.58773         3.07124
C         41.05442         8.54538         3.10620
C         40.03438        10.66073         2.41186
C         40.05511        12.08129         2.34895
C         41.06581         9.91264         3.07355
C         41.04220        12.85433         3.08615
C         40.33267        14.94301         1.93309
C         40.16590        16.40930         2.27426
C         41.13508        14.19397         2.96827
C         41.28307        17.14679         2.68824
C         39.99139        19.19245         2.75400
C         41.18979        18.53160         2.93079
O          4.97455         4.83931         0.26603
O         36.82840        10.16272        -1.04481
O         11.68912         2.66647         1.15297
O         24.99013        10.24884         0.06438
O         29.24415         6.13872        -2.99438
O         17.09668        13.69498        -3.42156
O         34.17761        12.53733        -1.87896
O         17.52289        16.80549        -3.17963
O          2.68328        14.45850         0.47006
O         14.59838         8.16173         0.19633
O         39.39314         5.69153         0.30715
H         40.26423         5.24669         0.24519
O         14.93847        16.88722         0.64548
H         14.21408        17.37855         1.08852
O          6.02233         8.62449         3.40832
H          6.96945         8.87107         3.32910
O         28.11606        14.97794         0.93243
H         28.00197        14.04439         1.21324
O          6.97715         3.69181         3.11100
H          7.84171         3.26009         3.27693
O         29.71339        17.18272        -2.62142
H         30.51245        17.72099        -2.80687
O         11.91963         5.42797        -2.49742
H         12.67376         4.98864        -2.94537
O          7.13697         1.33627        -0.77435
H          6.96245         2.25802        -1.05767
O          2.33165         4.05528         0.72362
H          3.07256         4.37614         0.15217
O         15.49874         7.81181        -3.32638
H         16.22361         7.42024        -3.85933
O         31.62656         0.14682         0.10751
H         31.34511         0.49977         0.97611
O         19.92831        17.53160        -3.61453
H         19.02688        17.56874        -4.01776
O         36.16129        16.75064        -1.08683
H         35.61164        16.25365        -1.73047
O         24.74693         4.35267        -4.01307
H         25.60630         4.77190        -4.23505
O         32.86671         6.28654         1.39937
H         32.00585         6.71525         1.58870
O          8.17412        14.14637         1.65311
H          7.55539        13.72421         2.28600
O         37.19622         6.31408         3.17377
H         36.27642         6.64974         3.21545
O         34.65016         5.72796        -1.74425
H         35.55025         5.38493        -1.92330
O          3.23435        11.63435         0.27969
H          2.94660        12.46571        -0.16435
O         35.78412        18.04882         3.19415
H         36.50154        17.63201         3.71912
O          7.96028        14.95097        -1.92794
H          8.64589        15.34680        -2.50761
O          4.91273        11.21482         3.52014
H          5.23564        10.39740         3.96991
O         41.12974        14.91523         0.69942
H         41.21326        13.97705         0.42633
O         18.38463        15.05135        -0.20311
H         18.58413        14.15866         0.14958
O          9.37626        18.77032        -2.17038
H          8.44893        18.46096        -2.26237
O         21.01546        10.65965        -3.98801
H         20.96494         9.71853        -4.26162
O         14.38908        14.36994        -3.36687
H         15.24191        14.10655        -3.79502
O          6.74217        12.68943        -1.44827
H          7.18512        13.37449        -2.00561
O         23.63458        15.17571        -3.49766
H         22.85789        15.66986        -3.84020
O         19.52942         5.59872        -3.96332
H         20.30785         5.10230        -4.29687
H          1.24929         1.62637         3.93223
H          0.88458         3.94020         3.24440
H          3.28043         0.35778         3.22331
H          0.86885         5.89139         3.04588
H          0.94090         8.32383         3.23606
H          1.12332        10.23631         3.65429
H          1.17085        12.68923         3.61278
H          0.94946        14.61752         3.27561
H          0.94200        17.04950         3.00727
H          1.98836        19.12005         2.34186
H          5.37546         0.30209         1.77779
H          4.03884        20.35381         1.67233
H          7.71469         0.29982         0.91112
H          6.39395        20.32456         0.98121
H          9.77743         0.18018         0.00402
H          8.66758        20.33732         0.12840
H         12.38738         0.31418        -1.14881
H         11.13205        20.32647        -0.52274
H         14.89245         0.27414        -1.00823
H         13.51175        20.30625        -0.89228
H         17.32896         0.29776        -1.29360
H         15.96511        20.33203        -0.99508
H         19.75640         0.31309        -1.60225
H         18.44172        20.28377        -0.97167
H         22.20371         0.33128        -1.80416
H         20.86423        20.27374        -0.88595
H         24.63691         0.34055        -1.92860
H         23.31104        20.30792        -0.92723
H         27.06079         0.33372        -1.62851
H         25.77090        20.33402        -0.87563
H         29.48005         0.31073        -1.20584
H         28.20340        20.34990        -0.60773
H         32.26441         0.80720        -1.72709
H         30.62958        20.33562        -0.18432
H         34.12398         0.27873         0.41510
H         33.00280        20.31930         0.32554
H         36.35764         0.28628         1.50135
H         35.25696        20.25010         1.31291
H         38.61219         0.28047         2.50415
H         37.54161        20.21823         2.34772
H         40.62997         1.51331         3.25827
H         41.84727         3.64537         3.56797
H         41.92650         6.08661         3.54111
H         41.88011         8.02503         3.61019
H         41.90217        10.44269         3.54805
H         41.69622        12.33527         3.80071
H         41.88121        14.74173         3.56223
H         42.25750        16.65100         2.79603
H         39.91529        20.27398         2.93599
H         42.08323        19.08516         3.25197
