         324
 CSIRO Nanostructure Databank - Neutral Graphene Oxide Data Set
C         30.29159        57.17798         0.18720
C         30.23164        58.58190         0.18395
C         29.06018        59.27868         0.54535
C         30.26811        61.37431         0.91081
C         29.09863        60.64388         0.90801
C         32.82384        52.90789         0.11702
C         32.75575        54.31985         0.01069
C         31.54074        55.04226         0.13245
C         32.74265        57.16049        -0.15282
C         31.51077        56.44803         0.02642
C         32.73349        58.63335        -0.29126
C         31.43744        59.36400        -0.15803
C         32.78866        61.45466         0.59421
C         31.48191        60.85081         0.28853
C         35.28975        48.66539        -0.20016
C         35.23855        50.06203        -0.24855
C         34.09278        50.79786         0.09259
C         35.25019        52.96542        -0.29727
C         34.04595        52.22362        -0.01273
C         35.20049        54.34397        -0.40117
C         33.96827        55.04022        -0.22600
C         35.22639        57.16960        -0.13088
C         33.95806        56.46758        -0.23595
C         35.16323        58.53183         0.50486
C         34.01562        59.37269        -0.00956
C         35.24246        61.38390         0.80497
C         33.98618        60.78279         0.46831
C         37.75386        44.42428        -0.12630
C         37.71874        45.80935        -0.39313
C         36.51854        46.54522        -0.24805
C         37.70740        48.60296        -0.82323
C         36.48978        47.93245        -0.45864
C         37.69507        50.06050        -1.02992
C         36.42957        50.80515        -0.73437
C         37.75160        52.93286        -0.91991
C         36.57357        52.23637        -0.26583
C         37.68565        54.41054        -1.03529
C         36.35199        55.14496        -0.94989
C         37.68132        57.15382         0.01711
C         36.42413        56.52105        -0.33544
C         37.64165        58.53804         0.43446
C         36.47056        59.26033         0.50689
C         37.70932        61.34932         0.97245
C         36.46130        60.68529         0.78761
C         40.31971        40.39941         0.93729
C         40.25274        41.65161         0.23936
C         39.01603        42.35160         0.17242
C         40.12794        44.36233        -0.76391
C         38.95315        43.69935        -0.25315
C         40.11718        45.72610        -1.00144
C         38.92684        46.48208        -0.77482
C         40.16439        48.61608        -1.16077
C         38.91202        47.90004        -0.94511
C         40.15628        50.06755        -1.13807
C         38.98442        50.79496        -1.03913
C         40.23220        53.02809        -1.36989
C         38.93977        52.25315        -1.09676
C         40.22397        54.37626        -0.66058
C         38.96459        55.14223        -0.70158
C         40.15102        57.03681         0.38205
C         38.91202        56.47988        -0.08278
C         40.12193        58.35650         1.06305
C         38.86881        59.16260         0.96740
C         40.17877        61.27085         1.03773
C         38.92042        60.64306         1.03168
C         42.92124        36.71579         2.91582
C         42.85082        37.88467         2.14064
C         41.61431        38.54875         1.92221
C         42.73424        40.18840         0.43067
C         41.51805        39.70757         1.12505
C         42.67442        41.52393        -0.28391
C         41.41088        42.25758        -0.28763
C         42.62171        44.29589        -1.18988
C         41.31985        43.51477        -1.12633
C         42.62024        45.66750        -1.37029
C         41.31357        46.41405        -1.62470
C         42.62719        48.58812        -1.28129
C         41.35604        47.90382        -1.31286
C         42.67038        49.98381        -1.17340
C         41.43992        50.77761        -1.50714
C         42.65133        52.85205        -0.73884
C         41.47929        52.21982        -1.05833
C         42.69113        54.37538        -0.76708
C         41.38939        55.02059        -0.33884
C         42.63067        57.05623         0.49241
C         41.36857        56.37565         0.19196
C         42.66349        58.36581         0.92853
C         41.42386        59.07664         1.42493
C         42.61053        61.24232         0.92718
C         41.40764        60.56174         1.06884
C         45.46248        34.28258         4.21537
C         44.23209        34.88748         3.95932
C         45.37028        36.63619         2.67259
C         44.15959        36.07297         3.18528
C         45.32361        37.82652         1.88720
C         44.07486        38.44803         1.60126
C         45.23567        40.22504         0.36822
C         44.04577        39.63547         0.83933
C         45.23294        41.67990        -0.06281
C         43.92346        42.26093        -0.57160
C         45.11459        44.18791        -1.56250
C         43.86642        43.54030        -1.07370
C         45.11205        45.68058        -1.77158
C         43.85512        46.42795        -1.47730
C         45.11285        48.59779        -1.45993
C         43.85490        47.81442        -1.38561
C         45.09014        49.96805        -0.91978
C         43.89510        50.68964        -0.90956
C         45.12423        52.78395        -0.40241
C         43.90326        52.11284        -0.64758
C         45.14540        54.22637        -0.15217
C         43.90425        54.99182        -0.12279
C         45.13151        56.98563         0.67440
C         43.86913        56.28675         0.34671
C         45.15727        58.45209         0.64380
C         43.95045        59.11115         1.23898
C         45.04365        61.29221         0.69490
C         43.88989        60.59092         0.91262
C         46.64820        34.82763         3.72026
C         47.82152        36.59697         2.43575
C         46.62599        36.01087         2.94167
C         47.79800        37.75963         1.65911
C         46.52281        38.38110         1.35682
C         47.71208        40.05728        -0.03954
C         46.46367        39.56540         0.58950
C         47.69319        41.39880        -0.73198
C         46.42856        42.11773        -0.83120
C         47.68497        44.25550        -1.15473
C         46.42064        43.46128        -1.43188
C         47.73063        45.68470        -1.65063
C         46.43771        46.40165        -1.85411
C         47.70746        48.52392        -1.29918
C         46.44353        47.89088        -1.68416
C         47.66393        49.86610        -0.73218
C         46.33270        50.61330        -0.52310
C         47.60836        52.70555        -0.10400
C         46.36365        52.07315        -0.36137
C         47.60590        54.11073         0.42368
C         46.34729        54.84855         0.08104
C         47.60931        57.03927        -0.08900
C         46.40971        56.27528         0.42874
C         47.58900        58.48849         0.31629
C         46.36680        59.14662         0.48597
C         47.55707        61.21168         1.19592
C         46.38285        60.66228         0.42146
C         49.01163        38.36994         1.21101
C         50.20269        40.16894         0.01232
C         49.01566        39.52564         0.42685
C         50.22382        41.43041        -0.63480
C         48.97077        42.12713        -0.90976
C         50.22371        44.12475        -1.60402
C         48.95561        43.44543        -1.28764
C         50.21483        45.65151        -1.71577
C         48.91371        46.37805        -1.62600
C         50.15729        48.46332        -1.11601
C         48.94202        47.83532        -1.43698
C         50.18262        49.91642        -0.89348
C         48.89191        50.69256        -0.78833
C         50.08196        52.76469        -0.05205
C         48.84918        52.06002        -0.23118
C         50.12165        54.14864         0.14581
C         48.87839        54.90195         0.16320
C         50.18468        57.04741         0.15754
C         48.89104        56.26636         0.14810
C         49.94971        58.32705         1.00716
C         48.89061        59.26152         0.35655
C         50.00395        61.19806         1.47831
C         48.77891        60.57581         1.11424
C         51.44395        42.11403        -0.81888
C         52.68449        44.20148        -1.29039
C         51.49579        43.46312        -1.24509
C         52.69339        45.63151        -1.37721
C         51.47528        46.33103        -1.44469
C         52.67398        48.37287        -0.69018
C         51.48583        47.83090        -1.45754
C         52.65757        49.78414        -0.21451
C         51.35813        50.52711        -0.20500
C         52.63841        52.69668         0.10039
C         51.34049        51.99167         0.08798
C         52.61676        54.11172         0.27073
C         51.37621        54.83023         0.32311
C         52.58234        56.87245         0.93306
C         51.38854        56.22600         0.56780
C         52.54398        58.27429         1.43525
C         51.24595        59.03582         1.42455
C         52.45804        61.22468         1.35020
C         51.25767        60.53061         1.41191
C         53.94312        46.35831        -1.26487
C         55.15747        48.48282        -0.75802
C         53.98206        47.72286        -0.96889
C         55.15060        49.86793        -0.42370
C         53.90579        50.56139        -0.19190
C         55.10495        52.71650        -0.24306
C         53.84678        51.96230        -0.06891
C         55.09373        54.19423         0.05138
C         53.82897        54.84738         0.42511
C         55.11080        56.85463         1.24975
C         53.81701        56.18219         0.84025
C         55.08097        58.36086         1.10025
C         53.83994        59.02931         1.51399
C         54.98383        61.23573         0.94960
C         53.77714        60.58439         1.42675
C         56.37271        50.59392        -0.34058
C         57.58131        52.75407        -0.15516
C         56.40074        51.99875        -0.20947
C         57.59655        54.17592         0.04257
C         56.36886        54.88159         0.30188
C         57.55320        56.98888         0.57565
C         56.35457        56.22569         0.65756
C         57.51017        58.41170         0.67337
C         56.24263        59.08884         0.91550
C         57.40247        61.25797         0.58992
C         56.19866        60.54984         0.84306
C         58.79347        54.91004         0.07031
C         59.96980        57.08303         0.14707
C         58.78717        56.31757         0.26231
C         59.93725        58.48833         0.22985
C         58.68638        59.15939         0.45973
C         59.84191        61.32437         0.24040
C         58.63954        60.60018         0.43853
C         61.11623        59.26800         0.05122
C         61.05809        60.65784         0.06401
O         45.73506        43.51001        -2.72017
O         53.98010        59.83823         2.69374
O         31.25865        60.42295        -1.11099
O         42.59222        40.23078        -1.03266
O         33.60928        59.12832        -1.37031
O         52.53319        48.63324         0.73140
O         45.77196        48.58404        -2.79335
O         51.10880        50.97974         1.16836
O         36.78097        50.53420        -2.11361
O         51.75193        58.44372         2.66639
O         45.98444        56.48250         1.81398
O         35.88566        55.32727        -2.39203
O         47.64279        40.10752        -1.50394
O         55.03003        53.68992        -1.34505
O         45.71363        46.01667        -3.06452
O         50.25001        44.77899        -2.91276
O         38.45963        55.03366        -2.12696
O         39.20441        58.41525         2.22367
O         49.63633        50.66514        -2.05072
O         47.02006        49.89832         0.58704
O         49.22775        59.67371        -0.99930
H         49.70077        58.93157        -1.45178
O         44.18139        59.01325         2.68092
H         43.29494        59.02626         3.12058
O         34.83890        58.30789         1.92515
H         35.63408        57.93151         2.35964
O         46.66338        61.00669        -0.98144
H         47.57295        60.68250        -1.19259
O         41.06583        43.00543        -2.47815
H         41.80699        42.40879        -2.71914
O         41.43267        50.81572        -2.97858
H         40.87728        51.58582        -3.25414
O         41.52929        59.04720         2.88548
H         40.60238        58.94910         3.22151
O         36.92972        52.16271         1.16168
H         36.15719        51.78894         1.63814
O         49.30546        57.87471         2.21462
H         50.01375        57.72585         2.88587
O         50.50266        57.42207        -1.23262
H         50.61566        56.59055        -1.74206
O         55.20928        56.61586         2.69741
H         55.85848        57.25083         3.06741
O         47.42202        57.04930        -1.55240
H         48.05569        57.69636        -1.93092
O         51.75804        48.22862        -2.84631
H         51.05453        47.84904        -3.41566
O         47.55296        53.98005         1.88630
H         47.23516        54.83621         2.25495
O         41.10586        46.33587        -3.06958
H         41.85866        46.78724        -3.50758
O         47.52685        44.45167         0.32306
H         48.32963        44.90393         0.66400
O         40.32463        53.31403        -2.80997
H         39.56652        53.92427        -3.01158
O         42.81611        54.70710        -2.19097
H         42.06223        54.26724        -2.65757
O         45.41265        42.38797         1.26249
H         45.98957        43.17528         1.11093
O         36.41971        56.56793        -2.89634
H         37.36582        56.33137        -3.08165
H         29.36743        56.61255         0.38187
H         28.13205        58.71093         0.70386
H         30.30377        62.36044         1.39657
H         28.18409        61.09842         1.31564
H         31.90287        52.33400         0.29566
H         30.60347        54.49509         0.31082
H         32.78833        62.46521         1.03218
H         34.39692        48.10754         0.11949
H         33.17646        50.26059         0.37871
H         35.25321        62.45685         1.05026
H         36.84180        43.91230         0.21359
H         35.60037        46.02215         0.05658
H         37.72337        62.44647         1.05189
H         39.39957        40.01394         1.40090
H         38.10729        41.87208         0.56485
H         40.21648        62.36806         0.95197
H         41.99558        36.28748         3.32870
H         40.70446        38.14807         2.39387
H         42.58389        62.33041         0.75343
H         45.49918        33.36327         4.81680
H         43.30702        34.44605         4.35695
H         44.97727        62.37749         0.51317
H         47.61014        34.33932         3.93215
H         48.78706        36.12383         2.66977
H         47.48490        62.20460         1.66638
H         49.96963        37.91651         1.50752
H         51.16597        39.71904         0.29725
H         49.99281        62.26350         1.75524
H         52.38216        41.60757        -0.54682
H         53.63799        43.68338        -1.10861
H         52.43087        62.31875         1.23205
H         54.88259        45.79201        -1.35419
H         56.13274        47.99717        -0.91808
H         54.93849        62.29924         0.67139
H         57.32305        50.04553        -0.42701
H         58.54826        52.23355        -0.23070
H         57.37114        62.35695         0.54750
H         59.75041        54.40063        -0.11658
H         60.92369        56.57546        -0.06036
H         59.80997        62.42325         0.22617
H         62.07570        58.75634        -0.11101
H         61.97816        61.24131        -0.08133
