         638
 CSIRO Nanostructure Databank - Neutral Graphene Oxide Data Set
C         22.97183        69.95930         0.07404
C         22.96790        71.34622         0.05083
C         21.90489        72.11152        -0.52198
C         23.17351        74.19295        -0.28250
C         22.00871        73.48506        -0.65909
C         25.31998        65.60697         0.44783
C         25.32320        67.01697         0.46417
C         24.13805        67.78516         0.27703
C         25.36049        69.86107         0.73828
C         24.14400        69.18986         0.40472
C         25.37274        71.30936         0.96247
C         24.10880        72.09687         0.61319
C         25.47477        74.18273         0.62852
C         24.25608        73.53513         0.31196
C         27.92025        61.28314         0.37908
C         27.84106        62.70886         0.42032
C         26.61994        63.36508         0.48074
C         27.77718        65.58247         0.29580
C         26.55930        64.82951         0.83314
C         27.77537        66.96458         0.93057
C         26.54777        67.73921         0.72031
C         27.84366        69.85930         0.99658
C         26.57511        69.13796         0.85800
C         27.84862        71.31989         0.97480
C         26.65981        72.03114         0.96173
C         27.89093        74.16858         1.11001
C         26.65597        73.48015         0.93932
C         30.44580        57.05258         0.44972
C         30.42497        58.45931         0.46450
C         29.20333        59.18520         0.46073
C         30.38506        61.36267         0.44853
C         29.14855        60.59989         0.43804
C         30.37128        62.73921         0.36823
C         29.10515        63.46795         0.39884
C         30.32779        65.65501         0.18460
C         29.08479        64.83658         0.41644
C         30.35356        66.96204         0.96793
C         29.06530        67.71389         1.14229
C         30.32270        69.90767         0.69114
C         29.04664        69.17837         1.03763
C         30.30673        71.34661         1.11605
C         29.11533        72.03110         1.11013
C         30.35492        74.18099         1.26945
C         29.10889        73.48917         1.21983
C         32.89012        52.79666         0.24649
C         32.90940        54.20561         0.32675
C         31.69233        54.92500         0.35376
C         32.91865        57.04690         0.37204
C         31.66587        56.32987         0.41599
C         32.88492        58.48535         0.46788
C         31.68300        59.16718         0.50310
C         32.86073        61.30799        -0.04442
C         31.69833        60.66211         0.72147
C         32.86698        62.80635         0.16231
C         31.63226        63.48921         0.29391
C         32.83290        65.64331         0.27381
C         31.61973        64.89745         0.31851
C         32.84812        67.04955         0.47055
C         31.63313        67.72809         0.94319
C         32.81130        69.89416         0.92718
C         31.61165        69.19285         1.00190
C         32.83648        71.32502         1.08202
C         31.58375        72.01905         1.55335
C         32.82506        74.17719         1.23925
C         31.58622        73.51082         1.30172
C         35.33920        48.46628         0.31162
C         35.29601        49.88638         0.34692
C         34.09800        50.63609         0.29149
C         35.32458        52.78743         0.50968
C         34.08662        52.05784         0.31275
C         35.41388        54.21681         0.36332
C         34.17104        54.92314         0.29326
C         35.33827        57.09437        -0.25272
C         34.12841        56.34269         0.22976
C         35.48637        58.48146         0.33168
C         34.15918        59.24036         0.62372
C         35.36923        61.42921         0.34461
C         34.15469        60.66906         0.39981
C         35.33325        62.85313        -0.01372
C         34.08495        63.52747         0.05157
C         35.27847        65.68703        -0.05182
C         34.07662        64.96164         0.07830
C         35.27246        67.11871         0.07774
C         34.04929        67.78651         0.41200
C         35.26533        69.90843         0.60896
C         34.05139        69.19071         0.67199
C         35.27619        71.32456         0.81711
C         34.03414        72.02616         1.02603
C         35.29841        74.14419         1.13123
C         34.05709        73.47641         1.16435
C         37.90278        44.25382         0.88435
C         37.81511        45.62547         0.52785
C         36.62225        46.35173         0.50179
C         37.78954        48.54854         0.32689
C         36.56580        47.78400         0.36768
C         37.81431        49.94543         0.43897
C         36.53142        50.59957         0.56218
C         38.21504        52.99230         0.45137
C         36.41696        51.96555         0.86262
C         37.95017        54.33432         0.02219
C         36.67631        54.95331         0.12913
C         37.79869        57.09774        -0.53869
C         36.64400        56.34902        -0.19240
C         37.78208        58.54204        -0.63207
C         36.65727        59.22464        -0.13296
C         37.69340        61.41043        -0.84198
C         36.72196        60.66459         0.04798
C         37.76744        62.88098        -0.52207
C         36.54450        63.56356        -0.23247
C         37.72437        65.70807        -0.42047
C         36.52013        64.99377        -0.24524
C         37.68149        67.20477        -0.62111
C         36.46311        67.85608        -0.03401
C         37.72940        69.94086         0.36693
C         36.48376        69.23217         0.27751
C         37.72807        71.28383         0.74536
C         36.50649        72.00685         0.87486
C         37.76935        74.12871         0.95199
C         36.52719        73.45150         1.02230
C         40.47226        40.15231         1.84002
C         40.42417        41.51129         1.43540
C         39.20651        42.20900         1.34757
C         40.38372        44.29488         0.75399
C         39.13602        43.57884         0.98538
C         40.37033        45.64644         0.37698
C         39.06834        46.31746         0.15634
C         40.33083        48.55276         0.35030
C         39.03979        47.81717         0.06289
C         40.24693        49.98640        -0.10040
C         39.06999        50.68107         0.10649
C         40.15706        52.73921        -1.02303
C         39.06916        52.12025        -0.17390
C         40.18932        54.24251        -0.92934
C         39.09526        54.99793        -0.55305
C         40.22854        57.14795        -1.00648
C         39.05948        56.44402        -0.71844
C         40.24410        58.57578        -1.16270
C         39.00661        59.27808        -0.94962
C         40.20836        61.43054        -1.20432
C         39.01752        60.68988        -0.95685
C         40.17861        62.87397        -1.09394
C         38.95221        63.58752        -0.74327
C         40.13862        65.80190        -0.81689
C         38.93794        65.02622        -0.62994
C         40.18352        67.18320        -0.54922
C         38.96872        67.89755        -0.25774
C         40.23644        69.94450         0.28898
C         38.97769        69.22947         0.12754
C         40.24774        71.25605         0.72544
C         38.99879        71.95060         1.19799
C         40.22247        74.11996         0.79994
C         39.00197        73.44518         0.92524
C         43.07291        36.25438         3.26086
C         42.99507        37.43035         2.52460
C         41.77310        38.14186         2.42108
C         42.89381        40.06863         1.30810
C         41.67367        39.42420         1.85910
C         42.90497        41.54185         1.19168
C         41.67309        42.21570         1.17002
C         42.85342        44.31111         0.67073
C         41.63066        43.60907         0.87783
C         42.80239        45.72242         0.43724
C         41.58895        46.37423         0.25403
C         42.79734        48.62708         0.08143
C         41.55540        47.81911        -0.21306
C         42.78826        50.00960        -0.21105
C         41.48893        50.62251        -0.71551
C         42.74130        52.78899        -0.93697
C         41.47414        52.13311        -0.46200
C         42.68697        54.15265        -1.46698
C         41.36299        54.94408        -1.56976
C         42.72062        57.08622        -1.32437
C         41.49462        56.33396        -0.90513
C         42.65735        58.49366        -1.66567
C         41.44214        59.28692        -1.52656
C         42.56919        61.58849        -1.83875
C         41.42529        60.74115        -1.57099
C         42.55599        62.96952        -1.62586
C         41.34682        63.62502        -1.30955
C         42.64344        65.87276        -1.33985
C         41.31898        65.10230        -1.31883
C         42.65154        67.23281        -0.79234
C         41.44057        67.89676        -0.48233
C         42.71385        69.94185         0.04103
C         41.46902        69.25029        -0.03834
C         42.75115        71.31785         0.42088
C         41.53717        71.96557         1.03185
C         42.68106        74.15310         0.68106
C         41.48097        73.46030         0.78343
C         45.61844        33.80756         4.54945
C         44.38181        34.38982         4.22627
C         45.54495        36.22415         3.09162
C         44.32023        35.59188         3.50142
C         45.51736        37.43114         2.35055
C         44.21331        37.84747         1.71197
C         45.46328        40.08941         1.23149
C         44.18847        39.31938         1.28756
C         45.41797        41.50810         0.94012
C         44.13208        42.21871         0.91956
C         45.32510        44.28653         0.15878
C         44.08954        43.60189         0.67851
C         45.32133        45.78078         0.33499
C         44.05482        46.50811         0.69289
C         45.22241        48.66843         0.21121
C         44.03215        47.96269         0.29178
C         45.26282        50.16439         0.26029
C         43.96855        50.77940        -0.22452
C         45.21221        52.90585        -0.72029
C         43.95937        52.15718        -0.66092
C         45.20776        54.25074        -0.96606
C         43.98383        54.93788        -1.40882
C         45.20303        57.16478        -1.21267
C         43.91329        56.40947        -1.34764
C         45.14756        58.48773        -1.92767
C         43.85507        58.97213        -2.22699
C         45.06451        61.52765        -1.79722
C         43.86762        61.08380        -2.27954
C         45.04740        62.91381        -1.20819
C         43.87657        63.69820        -1.85876
C         45.11165        65.78686        -1.24043
C         43.89740        65.12480        -1.38579
C         45.10574        67.19304        -0.95520
C         43.90475        67.88387        -0.64720
C         45.16760        69.97934        -0.22211
C         43.93144        69.27504        -0.28602
C         45.18108        71.37026         0.09657
C         43.94651        72.03813         0.38805
C         45.15851        74.16428         0.59544
C         43.94790        73.47843         0.59546
C         46.80982        34.42366         4.19482
C         47.99527        36.32303         3.12955
C         46.79997        35.65101         3.47513
C         47.97153        37.55143         2.45210
C         46.70485        38.11315         2.04084
C         47.95647        40.05897         0.96179
C         46.66802        39.42871         1.44285
C         47.90789        41.56974         0.96816
C         46.62290        42.22690         0.84670
C         47.77726        44.38809         0.63207
C         46.62091        43.66058         0.61512
C         47.82596        45.87920         0.46484
C         46.47227        46.47571         0.22950
C         47.66898        48.59547        -0.55105
C         46.43802        47.91286        -0.08590
C         47.67123        50.07993        -0.58237
C         46.53053        50.78484        -0.30512
C         47.69588        52.89219        -1.08311
C         46.54375        52.29085        -0.29558
C         47.66447        54.22357        -1.36046
C         46.49946        55.04634        -0.88657
C         47.64435        57.12244        -1.82306
C         46.36494        56.32978        -1.72716
C         47.59580        58.56974        -1.84518
C         46.32188        59.24709        -1.92782
C         47.59929        61.46479        -1.77684
C         46.30971        60.71109        -1.52808
C         47.56016        62.88777        -1.63093
C         46.37888        63.60032        -1.41347
C         47.58336        65.69991        -1.08033
C         46.38192        65.05055        -1.28647
C         47.67948        67.15675        -1.10791
C         46.34630        67.95118        -1.04363
C         47.62726        69.98258        -0.39659
C         46.39343        69.32328        -0.53209
C         47.63716        71.37944        -0.06275
C         46.40755        72.07388         0.13965
C         47.63257        74.16846         0.48694
C         46.41133        73.49071         0.41764
C         49.18516        38.26986         2.22625
C         50.39829        40.26801         1.50318
C         49.21123        39.52405         1.61497
C         50.38423        41.62682         1.07600
C         49.08603        42.27934         0.94096
C         50.26955        44.41278         0.28610
C         49.09501        43.77906         1.00369
C         50.19731        45.67692        -0.32462
C         48.86210        46.33210        -0.59196
C         50.07728        48.49386        -1.03431
C         48.94615        47.84697        -0.62052
C         50.05696        49.92921        -1.24737
C         48.91515        50.70044        -1.04137
C         50.06343        52.79174        -1.73264
C         48.90162        52.12312        -1.34150
C         50.09997        54.21267        -1.92811
C         48.77740        54.90940        -2.11100
C         50.07995        57.09173        -2.03344
C         48.83324        56.41163        -1.93502
C         50.05065        58.56822        -2.34618
C         48.79503        59.30445        -1.93229
C         50.09599        61.43227        -1.86702
C         48.80821        60.74338        -1.88763
C         50.12689        62.83698        -1.58518
C         48.86176        63.67790        -1.71629
C         50.07947        65.62955        -0.54901
C         48.77009        64.84281        -0.69893
C         50.11236        67.11663        -0.59336
C         48.90023        67.85017        -0.69078
C         50.10190        69.94446        -0.28680
C         48.87643        69.25727        -0.50031
C         50.10155        71.35954        -0.06089
C         48.86809        72.07121         0.06025
C         50.10372        74.15975         0.44537
C         48.87393        73.48526         0.32993
C         51.54617        42.36771         0.85434
C         52.66910        44.36890        -0.11806
C         51.50764        43.72247         0.36338
C         52.60530        45.65446        -0.66210
C         51.36707        46.32166        -0.77761
C         52.57499        48.46038        -1.39441
C         51.28420        47.67267        -1.47645
C         52.56328        49.85349        -1.59816
C         51.25838        50.55603        -1.93541
C         52.53347        52.71876        -2.28751
C         51.36413        52.05076        -1.58536
C         52.54520        54.23401        -2.52133
C         51.28168        54.93110        -2.06793
C         52.55193        57.09541        -2.06754
C         51.29339        56.37735        -2.08036
C         52.54144        58.50901        -2.03419
C         51.34227        59.28364        -2.05222
C         52.61880        61.46444        -2.09350
C         51.31527        60.69333        -1.95591
C         52.59867        62.86202        -1.51472
C         51.33578        63.49888        -1.30889
C         52.61430        65.66931        -0.89202
C         51.36097        64.89509        -0.80477
C         52.60536        67.07621        -0.68498
C         51.34251        67.79822        -0.55713
C         52.55515        69.94378        -0.30745
C         51.34194        69.23243        -0.39425
C         52.56310        71.34001        -0.01130
C         51.32676        72.05388         0.08604
C         52.57523        74.13795         0.49105
C         51.33812        73.46976         0.33646
C         53.82837        46.27638        -1.28780
C         54.99931        48.50026        -1.18118
C         53.80744        47.78389        -1.22708
C         55.00971        49.90671        -1.37651
C         53.77310        50.57351        -1.61201
C         55.05458        52.75503        -1.91725
C         53.81599        51.98237        -2.07037
C         55.03543        54.18312        -1.93219
C         53.81607        54.92517        -2.07060
C         55.04331        57.00035        -1.71183
C         53.80723        56.33180        -1.97231
C         55.01676        58.46398        -1.51585
C         53.86579        59.24398        -2.12009
C         55.08027        61.38988        -1.53144
C         53.76922        60.65309        -1.47420
C         55.10820        62.87822        -1.71368
C         53.79810        63.54821        -1.35257
C         55.05819        65.65087        -0.85232
C         53.82212        64.96046        -1.04409
C         55.06612        67.06540        -0.68229
C         53.83257        67.77760        -0.66921
C         55.09005        69.98038        -0.39718
C         53.80209        69.28335        -0.83710
C         54.99226        71.19457         0.51617
C         53.77645        72.02772         0.24542
C         55.04536        74.08672         0.75585
C         53.79863        73.42811         0.48685
C         56.22462        50.64202        -1.41557
C         57.47583        52.76778        -1.54487
C         56.24756        52.04245        -1.62382
C         57.49577        54.14251        -1.63568
C         56.27346        54.88179        -1.75370
C         57.52851        57.00791        -1.43234
C         56.27021        56.30717        -1.65118
C         57.55771        58.41937        -1.29433
C         56.30128        59.20046        -1.36421
C         57.58843        61.37396        -1.25704
C         56.35901        60.65664        -1.83157
C         57.47168        62.77798        -0.78492
C         56.30543        63.51247        -1.01249
C         57.47663        65.56473        -0.32545
C         56.28150        64.90640        -0.73366
C         57.48774        67.00294        -0.16104
C         56.32315        67.72926        -0.42063
C         57.49426        69.83208         0.41390
C         56.34835        69.19018        -0.24592
C         57.47118        71.24014         0.60058
C         56.28427        71.96583         0.56542
C         57.49633        74.06244         1.08157
C         56.26629        73.39456         0.78110
C         58.83577        54.83631        -1.65081
C         59.95010        56.97863        -1.04820
C         58.76798        56.31148        -1.35170
C         59.96890        58.38066        -0.80513
C         58.74166        59.08406        -0.98347
C         59.72927        61.10414         0.17673
C         58.76504        60.55813        -0.84734
C         59.82316        62.61298         0.11120
C         58.64260        63.40440        -0.26168
C         59.94874        65.49120         0.19404
C         58.64184        64.80025        -0.08857
C         59.82904        66.91431         0.67833
C         58.68406        67.66631         0.34453
C         59.85560        69.70318         1.12391
C         58.67819        69.06895         0.64203
C         59.79112        71.15593         1.54352
C         58.80091        71.94128         0.68984
C         59.93153        73.99329         1.50640
C         58.72024        73.38431         1.14488
C         61.13512        59.07754        -0.39002
C         62.16822        61.05045         0.66226
C         61.08360        60.41452         0.09934
C         61.97685        62.36135         1.37765
C         60.91111        63.19525         0.68707
C         62.01597        65.24933         1.72973
C         60.85996        64.62876         1.03310
C         62.04978        66.73828         1.84629
C         60.94633        67.53120         1.27421
C         62.28307        69.60021         1.67491
C         61.01410        68.95079         1.38788
C         62.41764        71.09723         1.44964
C         61.12531        71.86299         1.51484
C         62.48518        73.96459         1.56231
C         61.15260        73.23978         1.55961
C         63.26122        63.13298         1.60637
C         64.52283        65.23108         1.99339
C         63.28163        64.47695         1.82936
C         64.58789        66.58745         2.10195
C         63.35782        67.41758         2.14582
C         64.69852        69.53735         2.22868
C         63.42776        68.88017         1.94142
C         64.71811        70.92034         2.44822
C         63.42110        71.69537         2.43862
C         64.78207        73.77184         2.54469
C         63.60930        73.17944         2.21155
C         65.93400        67.28936         2.07463
C         67.05385        69.39908         2.82281
C         65.89055        68.76823         2.40896
C         67.09928        70.80485         3.03702
C         65.91758        71.57487         2.82147
C         67.13920        73.61666         3.34205
C         65.95283        73.00224         2.94947
C         68.28608        71.47357         3.44725
C         68.29311        72.84732         3.60760
O         47.07204        67.75620        -2.30098
O         38.99007        47.00732        -1.16234
O         56.03135        70.04220        -1.49222
O         28.31691        67.13575         2.26938
O         62.41150        67.10041         3.22873
O         60.84341        64.75471         2.49802
O         55.45183        58.93509        -0.18628
O         43.40091        39.45845         0.04466
O         43.80092        60.00372        -3.16174
O         35.03773        58.70449         1.67884
O         50.82462        65.07150         0.59157
O         24.43035        71.75763         1.99836
O         36.43148        61.16500         1.34570
O         46.73858        48.04219        -1.60027
O         58.77337        61.24630        -2.14823
O         31.13234        66.98831         2.18098
O         37.47846        52.54702         1.55594
O         53.11981        52.04040        -3.42048
O         41.83403        65.68296        -2.57953
O         43.47622        54.35778        -2.68582
O         52.85782        61.61423        -3.52356
H         52.16875        62.20751        -3.88897
O         41.73023        71.83299         2.50333
H         42.53235        72.35029         2.73410
O         48.06001        39.65473        -0.44793
H         47.23820        39.94364        -0.89931
O         45.31979        50.50556         1.73755
H         44.51703        50.11415         2.14768
O         26.63347        64.88177         2.29370
H         25.84111        64.43477         2.65702
O         59.76261        54.17851        -0.77706
H         59.44938        54.29487         0.14318
O         41.68574        56.03273         0.51413
H         41.83156        56.87950         0.98630
O         49.32757        44.10663         2.44394
H         48.67593        43.59044         2.96586
O         45.99884        55.93864        -3.07133
H         46.76616        55.45631        -3.47296
O         55.30934        63.12542        -3.15429
H         55.72557        62.30961        -3.53447
O         48.93959        64.29118        -3.03317
H         48.71961        63.61277        -3.70502
O         48.43813        64.27776         0.59031
H         49.29079        64.19434         1.08507
O         44.82131        62.85677         0.23801
H         45.36636        63.55301         0.66347
O         49.97252        58.59818        -3.83846
H         49.31539        57.92077        -4.11085
O         62.81438        71.53452         3.75783
H         63.46409        71.84082         4.42503
O         51.71062        52.13590        -0.16845
H         50.93042        51.85157         0.35422
O         59.30586        71.17204         2.91386
H         60.00989        70.80032         3.48682
O         39.95303        52.42586        -2.41186
H         40.43007        53.09615        -2.95275
O         56.54041        60.64710        -3.28414
H         57.51669        60.70562        -3.43582
O         35.08987        57.34145        -1.68432
H         35.03220        56.47175        -2.13371
O         37.07573        61.32357        -2.17828
H         37.71955        61.67892        -2.82747
O         62.86666        74.18654         0.18777
H         63.03654        73.29438        -0.19820
O         32.64407        61.04475        -1.46314
H         33.39807        61.41990        -1.96468
O         38.98633        71.81874         2.66392
H         39.92516        71.89726         2.96466
O         52.52080        54.43711        -3.96976
H         52.91833        53.62516        -4.36900
O         59.17217        60.79135         1.48202
H         59.83756        61.09820         2.15123
O         46.30523        60.55992        -0.04995
H         45.80097        61.32111         0.33489
O         46.78365        55.37407         0.50398
H         46.83719        54.50573         0.98810
O         30.32609        69.94200        -0.80209
H         29.57621        70.51179        -1.07990
O         66.87185        66.60249         2.90847
H         66.53069        66.61443         3.82609
O         37.54216        67.38765        -2.08497
H         38.36270        67.04039        -2.49718
O         41.40632        52.35295         0.97412
H         42.26117        52.07267         1.36410
O         41.45568        47.75735        -1.66653
H         40.58144        47.33160        -1.87245
O         44.12425        63.71742        -3.28914
H         43.46317        64.32731        -3.68503
O         45.27696        44.08119        -1.29697
H         46.09365        44.46912        -1.68012
O         40.50125        48.55818         1.79907
H         39.83496        49.16791         2.18161
O         51.05857        47.39073        -2.90443
H         50.23977        46.84229        -2.95372
O         46.76851        52.70363         1.10133
H         46.23455        52.08484         1.66343
O         48.45115        54.73071        -3.55464
H         48.60593        53.78665        -3.77774
O         53.83999        45.90642        -2.68455
H         53.02978        46.28775        -3.09196
O         60.65462        65.58360        -1.09364
H         60.03216        65.96122        -1.75084
O         45.34576        57.53523         0.18150
H         45.83421        56.81415         0.65168
O         44.11564        46.55330         2.17514
H         44.96511        46.97931         2.42193
O         48.42374        45.92355        -1.91727
H         47.67904        46.53967        -2.15285
O         44.14515        37.05156         0.49161
H         43.60726        37.57805        -0.14671
O         41.46141        50.40428        -2.13932
H         41.51319        49.42250        -2.27896
O         27.54879        65.78264        -1.12558
H         28.40476        66.08892        -1.51496
O         48.25888        46.47901         1.72667
H         48.79830        45.80000         2.21063
O         62.96580        71.29916         0.10728
H         62.28079        71.01583        -0.53575
O         31.99085        60.88892         2.12989
H         31.27512        60.48260         2.66147
O         54.79053        70.59956         1.85192
H         54.75905        71.33350         2.50176
O         59.35597        71.94661        -0.65998
H         58.69441        72.35956        -1.25412
O         53.69788        69.46959        -2.28660
H         54.62365        69.57452        -2.61668
O         30.26392        66.09778        -1.23328
H         30.52476        65.33431        -1.79248
O         53.35921        60.50544        -0.08598
H         54.07283        59.99860         0.37380
O         61.40827        62.04947         2.70524
H         61.15649        62.92562         3.09367
O         41.05449        55.07227        -2.97348
H         41.92257        55.05459        -3.44946
O         54.19030        59.32887        -3.52242
H         53.62696        60.02965        -3.93008
O         51.00976        50.41000        -3.35222
H         51.04508        49.44613        -3.55398
O         31.60369        71.86855         3.02240
H         30.82213        72.34539         3.37530
H         23.23892        75.27200        -0.48311
H         25.53117        75.27640         0.51579
H         27.88688        75.26905         1.10956
H         30.34474        75.28060         1.20958
H         32.83841        75.27802         1.20535
H         35.31373        75.24214         1.21091
H         37.77069        75.22927         0.90163
H         40.21277        75.21751         0.69757
H         42.66745        75.25194         0.61400
H         45.16289        75.25529         0.73934
H         47.64281        75.24960         0.69139
H         50.10962        75.24231         0.64233
H         52.58111        75.22164         0.68099
H         55.03832        75.17003         0.94449
H         57.46141        75.13410         1.33353
H         59.96142        75.07469         1.71185
H         62.37793        74.97151         2.04067
H         64.89957        74.86133         2.43246
H         67.18298        74.71140         3.43395
H         22.08896        69.41687        -0.29724
H         21.00734        71.58805        -0.88183
H         21.17944        74.04271        -1.11706
H         24.36478        65.07676         0.30352
H         23.19397        67.27089         0.04315
H         26.98594        60.70168         0.36037
H         25.69303        62.76941         0.51711
H         29.49589        56.49744         0.45433
H         28.25853        58.62123         0.44236
H         31.92656        52.27335         0.16101
H         30.74437        54.36694         0.33449
H         34.40041        47.89706         0.24395
H         33.13759        50.10540         0.21853
H         36.97631        43.70445         1.11067
H         35.67554        45.81923         0.68099
H         39.54510        39.66240         2.17416
H         38.26985        41.66735         1.54956
H         42.16444        35.85264         3.73665
H         40.87575        37.70328         2.88587
H         45.63900        32.86093         5.10777
H         43.44909        33.90331         4.54601
H         47.77292        33.97182         4.47230
H         48.96253        35.88849         3.42332
H         50.12251        37.84645         2.61967
H         51.35116        39.81553         1.81830
H         52.52492        41.87379         0.94927
H         53.63558        43.84437        -0.08170
H         54.76327        45.86974        -0.82984
H         55.95363        47.96729        -1.05701
H         57.17363        50.11513        -1.23852
H         58.41851        52.22115        -1.39800
H         59.25837        54.72199        -2.69024
H         60.88121        56.39923        -0.96402
H         62.08851        58.53042        -0.33219
H         63.15396        60.56060         0.68455
H         64.20356        62.56443         1.65342
H         65.46427        64.66010         1.96975
H         66.33357        67.20287         1.02294
H         67.96321        68.79936         2.97664
H         69.19856        70.88785         3.62902
H         69.21523        73.35601         3.92225
